<?xml version='1.0' encoding='UTF-8'?>
<osm generator="JOSM" upload="true" version="0.6">
  <bounds maxlat="35.1559992" maxlon="136.927194" minlat="35.1552273" minlon="136.9247049" origin="CGImap 0.3.3 (31121 thorn-02.openstreetmap.org)" />
  <node action="modify" id="-10" lat="35.1553330118" lon="136.92633709672" visible="true" />
  <node id="2" lat="35.1552500018" lon="136.924864248" user="sho" version="1" visible="true"><tag k="amenity" v="parking" /><tag k="highway" v="traffic_signals" /></node><node action="modify" id="-8" lat="35.1557248792" lon="136.93031857231" visible="true">
    <tag k="amenity" v="parking" />
  </node>
  <node id="3" lat="35.155377504" lon="136.925404754" user="sho" version="1" visible="true"><tag k="amenity" v="parking" /><tag k="highway" v="traffic_signals" /></node><node id="4" lat="35.1557514068" lon="136.926950535" user="sho" version="1" visible="true"><tag k="amenity" v="parking" /><tag k="highway" v="traffic_signals" /></node><node changeset="22083038" id="599495462" lat="35.1559855" lon="136.9279326" timestamp="2014-05-02T11:59:45Z" uid="146930" user="Tom_G3X" version="3" visible="true">
    <tag k="highway" v="traffic_signals" />
  </node>
  <node changeset="7332179" id="605305112" lat="35.1542341" lon="136.9384332" timestamp="2011-02-19T14:09:53Z" uid="146930" user="Tom_G3X" version="3" visible="true" />
  <node changeset="24880116" id="659371307" lat="35.1548541" lon="136.9232329" timestamp="2014-08-20T09:58:25Z" uid="146930" user="Tom_G3X" version="5" visible="true">
    <tag k="highway" v="traffic_signals" />
  </node>
  <node changeset="24852393" id="659371308" lat="35.1552559" lon="136.9232399" timestamp="2014-08-19T08:23:23Z" uid="146930" user="Tom_G3X" version="5" visible="true" />
  <node changeset="22083038" id="659371309" lat="35.1558289" lon="136.9272647" timestamp="2014-05-02T11:59:45Z" uid="146930" user="Tom_G3X" version="2" visible="true" />
  <node changeset="24852393" id="659371310" lat="35.1557364" lon="136.9266969" timestamp="2014-08-19T08:23:23Z" uid="146930" user="Tom_G3X" version="4" visible="true" />
  <node id="1" lat="35.1556101169" lon="136.930298353" user="sho" version="1" visible="true"><tag k="amenity" v="parking" /><tag k="highway" v="traffic_signals" /></node><node changeset="14241711" id="659371311" lat="35.1554756" lon="136.9310618" timestamp="2012-12-11T19:09:29Z" uid="651065" user="futurumspes" version="4" visible="true">
    <tag k="highway" v="traffic_signals" />
  </node>
  <node changeset="7332179" id="659371312" lat="35.154901" lon="136.9344884" timestamp="2011-02-19T14:09:59Z" uid="146930" user="Tom_G3X" version="3" visible="true" />
  <node changeset="17015378" id="659371320" lat="35.1564697" lon="136.923162" timestamp="2013-07-19T18:45:04Z" uid="146930" user="Tom_G3X" version="4" visible="true" />
  <node changeset="24852393" id="659371337" lat="35.1588283" lon="136.9256399" timestamp="2014-08-19T08:23:23Z" uid="146930" user="Tom_G3X" version="3" visible="true" />
  <node changeset="24852393" id="659371338" lat="35.1589198" lon="136.9265791" timestamp="2014-08-19T08:23:23Z" uid="146930" user="Tom_G3X" version="3" visible="true" />
  <node changeset="22083038" id="659371344" lat="35.1586502" lon="136.9268675" timestamp="2014-05-02T11:59:45Z" uid="146930" user="Tom_G3X" version="3" visible="true" />
  <node changeset="22083038" id="659371345" lat="35.1582878" lon="136.9269892" timestamp="2014-05-02T11:59:45Z" uid="146930" user="Tom_G3X" version="3" visible="true" />
  <node changeset="24852393" id="659371349" lat="35.159495" lon="136.923564" timestamp="2014-08-19T08:23:23Z" uid="146930" user="Tom_G3X" version="3" visible="true" />
  <node changeset="24852393" id="659371355" lat="35.1592518" lon="136.9257074" timestamp="2014-08-19T08:23:23Z" uid="146930" user="Tom_G3X" version="3" visible="true" />
  <node changeset="4106779" id="664543371" lat="35.1533991" lon="136.9249347" timestamp="2010-03-12T14:31:15Z" uid="146930" user="Tom_G3X" version="2" visible="true" />
  <node changeset="24880116" id="664543392" lat="35.1546455" lon="136.9252618" timestamp="2014-08-20T09:58:25Z" uid="146930" user="Tom_G3X" version="3" visible="true" />
  <node changeset="24880116" id="664543393" lat="35.1544049" lon="136.9252287" timestamp="2014-08-20T09:58:25Z" uid="146930" user="Tom_G3X" version="3" visible="true" />
  <node changeset="24880116" id="664543394" lat="35.1548561" lon="136.9252286" timestamp="2014-08-20T09:58:25Z" uid="146930" user="Tom_G3X" version="3" visible="true" />
  <node changeset="24880116" id="664543395" lat="35.1552961" lon="136.9250542" timestamp="2014-08-20T09:58:25Z" uid="146930" user="Tom_G3X" version="4" visible="true" />
  <node changeset="24880116" id="664543406" lat="35.1548855" lon="136.926187" timestamp="2014-08-20T09:58:25Z" uid="146930" user="Tom_G3X" version="3" visible="true" />
  <node changeset="4106683" id="664543415" lat="35.1554962" lon="136.9259159" timestamp="2010-03-12T14:19:51Z" uid="146930" user="Tom_G3X" version="1" visible="true" />
  <node changeset="24880116" id="664543419" lat="35.1550571" lon="136.9260692" timestamp="2014-08-20T09:58:25Z" uid="146930" user="Tom_G3X" version="3" visible="true" />
  <node changeset="14241510" id="664543468" lat="35.1556411" lon="136.9301225" timestamp="2012-12-11T18:50:47Z" uid="651065" user="futurumspes" version="3" visible="true" />
  <node changeset="14241510" id="664543471" lat="35.1558851" lon="136.9286522" timestamp="2012-12-11T18:50:47Z" uid="651065" user="futurumspes" version="2" visible="true" />
  <node changeset="14241510" id="664543473" lat="35.1557752" lon="136.929342" timestamp="2012-12-11T18:50:47Z" uid="651065" user="futurumspes" version="2" visible="true" />
  <node changeset="7332179" id="664543490" lat="35.1553206" lon="136.9319405" timestamp="2011-02-19T14:09:56Z" uid="146930" user="Tom_G3X" version="2" visible="true" />
  <node changeset="14241510" id="664543494" lat="35.1551443" lon="136.9330005" timestamp="2012-12-11T18:50:46Z" uid="651065" user="futurumspes" version="3" visible="true" />
  <node changeset="6695994" id="1045031485" lat="35.1545782" lon="136.9363887" timestamp="2010-12-18T13:56:15Z" uid="173676" user="Wingspan" version="1" visible="true" />
  <node changeset="7332179" id="1161388471" lat="35.154877" lon="136.9346238" timestamp="2011-02-19T14:09:06Z" uid="146930" user="Tom_G3X" version="1" visible="true" />
  <node changeset="14296876" id="1161388502" lat="35.1544065" lon="136.9373584" timestamp="2012-12-16T18:09:43Z" uid="651065" user="futurumspes" version="2" visible="true" />
  <node changeset="22083038" id="1583573834" lat="35.1556147" lon="136.9259113" timestamp="2014-05-02T11:59:43Z" uid="146930" user="Tom_G3X" version="3" visible="true" />
  <node changeset="22083038" id="1583573838" lat="35.1557042" lon="136.9262911" timestamp="2014-05-02T11:59:43Z" uid="146930" user="Tom_G3X" version="3" visible="true" />
  <node changeset="15348393" id="1583573839" lat="35.1557285" lon="136.9248599" timestamp="2013-03-13T08:08:00Z" uid="146930" user="Tom_G3X" version="3" visible="true" />
  <node changeset="15348393" id="1583573841" lat="35.1557405" lon="136.9251388" timestamp="2013-03-13T08:08:00Z" uid="146930" user="Tom_G3X" version="3" visible="true" />
  <node changeset="22083038" id="1583573842" lat="35.1557794" lon="136.9258533" timestamp="2014-05-02T11:59:43Z" uid="146930" user="Tom_G3X" version="3" visible="true" />
  <node changeset="22083038" id="1583573844" lat="35.1558098" lon="136.9264765" timestamp="2014-05-02T11:59:43Z" uid="146930" user="Tom_G3X" version="3" visible="true" />
  <node changeset="22083038" id="1583573847" lat="35.1558655" lon="136.9266143" timestamp="2014-05-02T11:59:43Z" uid="146930" user="Tom_G3X" version="3" visible="true" />
  <node changeset="22083038" id="1583573851" lat="35.1558928" lon="136.9267558" timestamp="2014-05-02T11:59:43Z" uid="146930" user="Tom_G3X" version="3" visible="true" />
  <node changeset="15348393" id="1583573852" lat="35.1558693" lon="136.9248358" timestamp="2013-03-13T08:08:00Z" uid="146930" user="Tom_G3X" version="3" visible="true" />
  <node changeset="22083038" id="1583573853" lat="35.1558688" lon="136.926233" timestamp="2014-05-02T11:59:43Z" uid="146930" user="Tom_G3X" version="3" visible="true" />
  <node changeset="15348393" id="1583573855" lat="35.1558991" lon="136.9251116" timestamp="2013-03-13T08:08:00Z" uid="146930" user="Tom_G3X" version="3" visible="true" />
  <node changeset="22083038" id="1583573859" lat="35.155959" lon="136.9270206" timestamp="2014-05-02T11:59:43Z" uid="146930" user="Tom_G3X" version="3" visible="true" />
  <node changeset="22083038" id="1583573860" lat="35.1559492" lon="136.9265847" timestamp="2014-05-02T11:59:43Z" uid="146930" user="Tom_G3X" version="3" visible="true" />
  <node changeset="15348393" id="1583573861" lat="35.1559656" lon="136.9247933" timestamp="2013-03-13T08:08:00Z" uid="146930" user="Tom_G3X" version="4" visible="true" />
  <node changeset="22083038" id="1583573863" lat="35.1559954" lon="136.9267174" timestamp="2014-05-02T11:59:43Z" uid="146930" user="Tom_G3X" version="3" visible="true" />
  <node changeset="15348393" id="1583573864" lat="35.1559578" lon="136.9256346" timestamp="2013-03-13T08:08:00Z" uid="146930" user="Tom_G3X" version="4" visible="true" />
  <node changeset="22083038" id="1583573865" lat="35.1560272" lon="136.9268447" timestamp="2014-05-02T11:59:43Z" uid="146930" user="Tom_G3X" version="3" visible="true" />
  <node changeset="15348393" id="1583573866" lat="35.1559811" lon="136.9258397" timestamp="2013-03-13T08:08:00Z" uid="146930" user="Tom_G3X" version="4" visible="true" />
  <node changeset="22083038" id="1583573867" lat="35.1560446" lon="136.9269223" timestamp="2014-05-02T11:59:43Z" uid="146930" user="Tom_G3X" version="3" visible="true" />
  <node changeset="22083038" id="1583573868" lat="35.1560562" lon="136.9268339" timestamp="2014-05-02T11:59:43Z" uid="146930" user="Tom_G3X" version="3" visible="true" />
  <node changeset="22083038" id="1583573869" lat="35.1560598" lon="136.9269829" timestamp="2014-05-02T11:59:43Z" uid="146930" user="Tom_G3X" version="3" visible="true" />
  <node changeset="15348393" id="1583573870" lat="35.1560383" lon="136.9254917" timestamp="2013-03-13T08:08:00Z" uid="146930" user="Tom_G3X" version="4" visible="true" />
  <node changeset="22083038" id="1583573871" lat="35.1560754" lon="136.9269108" timestamp="2014-05-02T11:59:43Z" uid="146930" user="Tom_G3X" version="3" visible="true" />
  <node changeset="15348393" id="1583573877" lat="35.156111" lon="136.9247889" timestamp="2013-03-13T08:08:00Z" uid="146930" user="Tom_G3X" version="4" visible="true" />
  <node changeset="15348393" id="1583573881" lat="35.1561899" lon="136.9254653" timestamp="2013-03-13T08:08:00Z" uid="146930" user="Tom_G3X" version="4" visible="true" />
  <node changeset="15348393" id="1583573882" lat="35.1562006" lon="136.9255933" timestamp="2013-03-13T08:08:00Z" uid="146930" user="Tom_G3X" version="4" visible="true" />
  <node changeset="15348393" id="1583573885" lat="35.1562239" lon="136.9257984" timestamp="2013-03-13T08:08:00Z" uid="146930" user="Tom_G3X" version="4" visible="true" />
  <node changeset="24852393" id="1583573887" lat="35.1562385" lon="136.9271774" timestamp="2014-08-19T08:23:21Z" uid="146930" user="Tom_G3X" version="3" visible="true" />
  <node changeset="24852393" id="1583573906" lat="35.1569492" lon="136.9271898" timestamp="2014-08-19T08:23:21Z" uid="146930" user="Tom_G3X" version="3" visible="true" />
  <node changeset="24900848" id="1583573966" lat="35.1572504" lon="136.9271279" timestamp="2014-08-21T05:22:18Z" uid="146930" user="Tom_G3X" version="3" visible="true" />
  <node changeset="10517863" id="1608088498" lat="35.1541239" lon="136.9393134" timestamp="2012-01-28T01:32:20Z" uid="146930" user="Tom_G3X" version="1" visible="true" />
  <node changeset="10517863" id="1608088508" lat="35.1547261" lon="136.935515" timestamp="2012-01-28T01:32:21Z" uid="146930" user="Tom_G3X" version="1" visible="true" />
  <node changeset="10670627" id="1621753623" lat="35.1552033" lon="136.9233057" timestamp="2012-02-13T07:24:28Z" uid="146930" user="Tom_G3X" version="2" visible="true" />
  <node changeset="10613172" id="1621753651" lat="35.1554933" lon="136.9256829" timestamp="2012-02-07T15:29:20Z" uid="146930" user="Tom_G3X" version="1" visible="true" />
  <node changeset="10613172" id="1621753654" lat="35.1555008" lon="136.9241777" timestamp="2012-02-07T15:29:20Z" uid="146930" user="Tom_G3X" version="1" visible="true" />
  <node changeset="10613172" id="1621753684" lat="35.1556757" lon="136.9248571" timestamp="2012-02-07T15:29:20Z" uid="146930" user="Tom_G3X" version="1" visible="true" />
  <node changeset="24852393" id="1621753685" lat="35.1556927" lon="136.92456" timestamp="2014-08-19T08:23:21Z" uid="146930" user="Tom_G3X" version="2" visible="true" />
  <node changeset="24852393" id="1621753690" lat="35.1557188" lon="136.9247984" timestamp="2014-08-19T08:23:21Z" uid="146930" user="Tom_G3X" version="2" visible="true" />
  <node changeset="10613172" id="1621753692" lat="35.1557064" lon="136.9246848" timestamp="2012-02-07T15:29:21Z" uid="146930" user="Tom_G3X" version="1" visible="true" />
  <node changeset="10613172" id="1621753693" lat="35.1557632" lon="136.9247932" timestamp="2012-02-07T15:29:21Z" uid="146930" user="Tom_G3X" version="1" visible="true" />
  <node changeset="15348393" id="1621753696" lat="35.1557869" lon="136.9251733" timestamp="2013-03-13T08:08:03Z" uid="146930" user="Tom_G3X" version="2" visible="true" />
  <node changeset="15348393" id="1621753697" lat="35.1558278" lon="136.9255151" timestamp="2013-03-13T08:08:03Z" uid="146930" user="Tom_G3X" version="2" visible="true" />
  <node changeset="22083038" id="1621753700" lat="35.1558219" lon="136.9264008" timestamp="2014-05-02T11:59:43Z" uid="146930" user="Tom_G3X" version="2" visible="true" />
  <node changeset="22083038" id="1621753702" lat="35.1558374" lon="136.9264667" timestamp="2014-05-02T11:59:43Z" uid="146930" user="Tom_G3X" version="2" visible="true" />
  <node changeset="22083038" id="1621753715" lat="35.1558369" lon="136.9265915" timestamp="2014-05-02T11:59:43Z" uid="146930" user="Tom_G3X" version="2" visible="true" />
  <node changeset="22083038" id="1621753718" lat="35.1558583" lon="136.9265839" timestamp="2014-05-02T11:59:43Z" uid="146930" user="Tom_G3X" version="2" visible="true" />
  <node changeset="22083038" id="1621753719" lat="35.1558994" lon="136.9263735" timestamp="2014-05-02T11:59:43Z" uid="146930" user="Tom_G3X" version="2" visible="true" />
  <node changeset="15348393" id="1621753721" lat="35.1559056" lon="136.9251521" timestamp="2013-03-13T08:08:03Z" uid="146930" user="Tom_G3X" version="2" visible="true" />
  <node changeset="15348393" id="1621753724" lat="35.1559465" lon="136.9254939" timestamp="2013-03-13T08:08:03Z" uid="146930" user="Tom_G3X" version="2" visible="true" />
  <node changeset="15348393" id="1621753726" lat="35.1559416" lon="136.9248178" timestamp="2013-03-13T08:08:03Z" uid="146930" user="Tom_G3X" version="3" visible="true" />
  <node changeset="15348393" id="1621753731" lat="35.1559679" lon="136.9248132" timestamp="2013-03-13T08:08:03Z" uid="146930" user="Tom_G3X" version="3" visible="true" />
  <node changeset="15348393" id="1621753741" lat="35.1560172" lon="136.9254663" timestamp="2013-03-13T08:08:03Z" uid="146930" user="Tom_G3X" version="3" visible="true" />
  <node changeset="15348393" id="1621753745" lat="35.156035" lon="136.9254632" timestamp="2013-03-13T08:08:04Z" uid="146930" user="Tom_G3X" version="3" visible="true" />
  <node changeset="24852393" id="1621753751" lat="35.1561042" lon="136.9265612" timestamp="2014-08-19T08:23:21Z" uid="146930" user="Tom_G3X" version="2" visible="true" />
  <node changeset="24852393" id="1621753752" lat="35.1559525" lon="136.9231684" timestamp="2014-08-19T08:23:21Z" uid="146930" user="Tom_G3X" version="3" visible="true" />
  <node changeset="10613172" id="1621753754" lat="35.1561657" lon="136.926797" timestamp="2012-02-07T15:29:22Z" uid="146930" user="Tom_G3X" version="1" visible="true" />
  <node changeset="10613172" id="1621753757" lat="35.1562315" lon="136.926909" timestamp="2012-02-07T15:29:22Z" uid="146930" user="Tom_G3X" version="1" visible="true" />
  <node changeset="10613172" id="1621753758" lat="35.1562507" lon="136.9246942" timestamp="2012-02-07T15:29:22Z" uid="146930" user="Tom_G3X" version="1" visible="true" />
  <node changeset="10613172" id="1621753760" lat="35.1562508" lon="136.9269935" timestamp="2012-02-07T15:29:22Z" uid="146930" user="Tom_G3X" version="1" visible="true" />
  <node changeset="24859676" id="1621753763" lat="35.1562191" lon="136.923158" timestamp="2014-08-19T13:38:25Z" uid="146930" user="Tom_G3X" version="3" visible="true" />
  <node changeset="24859676" id="1621753779" lat="35.1564145" lon="136.9231661" timestamp="2014-08-19T13:38:25Z" uid="146930" user="Tom_G3X" version="3" visible="true" />
  <node changeset="22083038" id="1630915043" lat="35.1559453" lon="136.9268903" timestamp="2014-05-02T11:59:43Z" uid="146930" user="Tom_G3X" version="4" visible="true">
    <tag k="addr:full" v="愛知県名古屋市昭和区狭間町32" />
    <tag k="addr:postcode" v="466-0062" />
    <tag k="atm" v="yes" />
    <tag k="branch" v="昭和狭間町店" />
    <tag k="brand" v="サークルK" />
    <tag k="level" v="0" />
    <tag k="name" v="サークルK" />
    <tag k="name:en" v="Circle K" />
    <tag k="name:ja" v="サークルK" />
    <tag k="name:ja_rm" v="Sākuru-Kei" />
    <tag k="opening_hours" v="24/7" />
    <tag k="operator" v="サークルKサンクス" />
    <tag k="phone" v="+81-52-7318933" />
    <tag k="shop" v="convenience" />
    <tag k="source" v="Bing 2010; (URL) 2012" />
    <tag k="website" v="http://www.circleksunkus.jp/" />
    <tag k="wikipedia" v="ja:サークルKサンクス" />
  </node>
  <node changeset="10670396" id="1630915044" lat="35.155762" lon="136.9267998" timestamp="2012-02-13T06:02:36Z" uid="146930" user="Tom_G3X" version="1" visible="true" />
  <node changeset="10670396" id="1630915045" lat="35.155833" lon="136.9270923" timestamp="2012-02-13T06:02:36Z" uid="146930" user="Tom_G3X" version="1" visible="true" />
  <node changeset="10670396" id="1630915046" lat="35.1558803" lon="136.9267569" timestamp="2012-02-13T06:02:36Z" uid="146930" user="Tom_G3X" version="1" visible="true" />
  <node changeset="10670396" id="1630915047" lat="35.1559513" lon="136.9270493" timestamp="2012-02-13T06:02:36Z" uid="146930" user="Tom_G3X" version="1" visible="true" />
  <node changeset="15348393" id="1630948360" lat="35.1555546" lon="136.9247179" timestamp="2013-03-13T08:08:04Z" uid="146930" user="Tom_G3X" version="2" visible="true" />
  <node changeset="15348393" id="1630948362" lat="35.1555625" lon="136.9247774" timestamp="2013-03-13T08:08:04Z" uid="146930" user="Tom_G3X" version="2" visible="true" />
  <node changeset="15348393" id="1630948364" lat="35.155574" lon="136.9247936" timestamp="2013-03-13T08:08:04Z" uid="146930" user="Tom_G3X" version="2" visible="true" />
  <node changeset="15348393" id="1630948366" lat="35.1555801" lon="136.9248413" timestamp="2013-03-13T08:08:04Z" uid="146930" user="Tom_G3X" version="2" visible="true" />
  <node changeset="15348393" id="1630948368" lat="35.1556305" lon="136.9247028" timestamp="2013-03-13T08:08:04Z" uid="146930" user="Tom_G3X" version="2" visible="true" />
  <node changeset="15348393" id="1630948371" lat="35.1556384" lon="136.9247623" timestamp="2013-03-13T08:08:04Z" uid="146930" user="Tom_G3X" version="2" visible="true" />
  <node changeset="10670493" id="1630948376" lat="35.155678" lon="136.9247271" timestamp="2012-02-13T06:44:21Z" uid="146930" user="Tom_G3X" version="1" visible="true">
    <tag k="smoking" v="yes" />
  </node>
  <node changeset="15348393" id="1630948377" lat="35.1556879" lon="136.9247718" timestamp="2013-03-13T08:08:04Z" uid="146930" user="Tom_G3X" version="2" visible="true" />
  <node changeset="15348393" id="1630948379" lat="35.1556941" lon="136.9248195" timestamp="2013-03-13T08:08:04Z" uid="146930" user="Tom_G3X" version="2" visible="true" />
  <node changeset="20408651" id="1630948380" lat="35.1557945" lon="136.9260377" timestamp="2014-02-06T09:45:34Z" uid="416346" user="Brian@Brea" version="2" visible="true">
    <tag k="emergency" v="defibrillator" />
  </node>
  <node changeset="15348393" id="1630975540" lat="35.155061" lon="136.9238912" timestamp="2013-03-13T08:08:05Z" uid="146930" user="Tom_G3X" version="2" visible="true" />
  <node changeset="15348393" id="1630975547" lat="35.1551768" lon="136.9243933" timestamp="2013-03-13T08:08:05Z" uid="146930" user="Tom_G3X" version="2" visible="true" />
  <node changeset="24852393" id="1630975558" lat="35.1553228" lon="136.9249972" timestamp="2014-08-19T08:23:22Z" uid="146930" user="Tom_G3X" version="2" visible="true" />
  <node changeset="15348393" id="1630975559" lat="35.1553064" lon="136.9237985" timestamp="2013-03-13T08:08:05Z" uid="146930" user="Tom_G3X" version="2" visible="true" />
  <node changeset="10670627" id="1630975561" lat="35.1553383" lon="136.9250257" timestamp="2012-02-13T07:24:14Z" uid="146930" user="Tom_G3X" version="1" visible="true" />
  <node changeset="10670627" id="1630975574" lat="35.1554636" lon="136.9242739" timestamp="2012-02-13T07:24:15Z" uid="146930" user="Tom_G3X" version="1" visible="true" />
  <node changeset="10670627" id="1630975578" lat="35.1554835" lon="136.9243662" timestamp="2012-02-13T07:24:15Z" uid="146930" user="Tom_G3X" version="1" visible="true" />
  <node changeset="10670627" id="1630975579" lat="35.1554926" lon="136.9244564" timestamp="2012-02-13T07:24:15Z" uid="146930" user="Tom_G3X" version="1" visible="true" />
  <node changeset="10670627" id="1630975581" lat="35.1555074" lon="136.9256787" timestamp="2012-02-13T07:24:15Z" uid="146930" user="Tom_G3X" version="1" visible="true" />
  <node changeset="10670627" id="1630975586" lat="35.1555083" lon="136.9246055" timestamp="2012-02-13T07:24:15Z" uid="146930" user="Tom_G3X" version="1" visible="true" />
  <node changeset="10670627" id="1630975587" lat="35.1555166" lon="136.9247312" timestamp="2012-02-13T07:24:15Z" uid="146930" user="Tom_G3X" version="1" visible="true" />
  <node changeset="10670627" id="1630975594" lat="35.1555423" lon="136.9248093" timestamp="2012-02-13T07:24:15Z" uid="146930" user="Tom_G3X" version="1" visible="true" />
  <node changeset="24852393" id="1630975597" lat="35.1555896" lon="136.9248964" timestamp="2014-08-19T08:23:22Z" uid="146930" user="Tom_G3X" version="2" visible="true" />
  <node changeset="10670627" id="1630975598" lat="35.1556045" lon="136.924889" timestamp="2012-02-13T07:24:15Z" uid="146930" user="Tom_G3X" version="1" visible="true" />
  <node changeset="10670627" id="1630975600" lat="35.1556135" lon="136.9249223" timestamp="2012-02-13T07:24:16Z" uid="146930" user="Tom_G3X" version="1" visible="true" />
  <node changeset="10670627" id="1630975602" lat="35.15564" lon="136.9249405" timestamp="2012-02-13T07:24:16Z" uid="146930" user="Tom_G3X" version="1" visible="true" />
  <node changeset="10670627" id="1630975603" lat="35.1556691" lon="136.9249922" timestamp="2012-02-13T07:24:16Z" uid="146930" user="Tom_G3X" version="1" visible="true" />
  <node changeset="10670627" id="1630975607" lat="35.1556931" lon="136.92505" timestamp="2012-02-13T07:24:16Z" uid="146930" user="Tom_G3X" version="1" visible="true" />
  <node changeset="10670627" id="1630975608" lat="35.1557138" lon="136.9251119" timestamp="2012-02-13T07:24:16Z" uid="146930" user="Tom_G3X" version="1" visible="true" />
  <node changeset="15348393" id="1630975609" lat="35.1557199" lon="136.9249586" timestamp="2013-03-13T08:08:05Z" uid="146930" user="Tom_G3X" version="2" visible="true" />
  <node changeset="10670627" id="1630975610" lat="35.1557271" lon="136.9251808" timestamp="2012-02-13T07:24:16Z" uid="146930" user="Tom_G3X" version="1" visible="true" />
  <node changeset="10670627" id="1630975611" lat="35.1557279" lon="136.9252437" timestamp="2012-02-13T07:24:16Z" uid="146930" user="Tom_G3X" version="1" visible="true" />
  <node changeset="10670627" id="1630975613" lat="35.1557279" lon="136.9253116" timestamp="2012-02-13T07:24:16Z" uid="146930" user="Tom_G3X" version="1" visible="true" />
  <node changeset="10670627" id="1630975614" lat="35.1557362" lon="136.9253867" timestamp="2012-02-13T07:24:17Z" uid="146930" user="Tom_G3X" version="1" visible="true" />
  <node changeset="15348393" id="1630975615" lat="35.1557394" lon="136.9249553" timestamp="2013-03-13T08:08:05Z" uid="146930" user="Tom_G3X" version="2" visible="true" />
  <node changeset="10670627" id="1630975616" lat="35.155752" lon="136.9255894" timestamp="2012-02-13T07:24:17Z" uid="146930" user="Tom_G3X" version="1" visible="true" />
  <node changeset="10670627" id="1630975617" lat="35.155753" lon="136.9245798" timestamp="2012-02-13T07:24:17Z" uid="146930" user="Tom_G3X" version="1" visible="true" />
  <node changeset="10670627" id="1630975618" lat="35.1557596" lon="136.9246447" timestamp="2012-02-13T07:24:17Z" uid="146930" user="Tom_G3X" version="1" visible="true" />
  <node changeset="10670627" id="1630975619" lat="35.1557644" lon="136.925555" timestamp="2012-02-13T07:24:17Z" uid="146930" user="Tom_G3X" version="1" visible="true" />
  <node changeset="10670627" id="1630975621" lat="35.1557663" lon="136.9246974" timestamp="2012-02-13T07:24:17Z" uid="146930" user="Tom_G3X" version="1" visible="true" />
  <node changeset="10670627" id="1630975622" lat="35.1557779" lon="136.9245595" timestamp="2012-02-13T07:24:17Z" uid="146930" user="Tom_G3X" version="1" visible="true" />
  <node changeset="10670627" id="1630975623" lat="35.1557785" lon="136.9255641" timestamp="2012-02-13T07:24:17Z" uid="146930" user="Tom_G3X" version="1" visible="true" />
  <node changeset="10670627" id="1630975625" lat="35.1557895" lon="136.9247137" timestamp="2012-02-13T07:24:17Z" uid="146930" user="Tom_G3X" version="1" visible="true" />
  <node changeset="10670627" id="1630975626" lat="35.155811" lon="136.9257276" timestamp="2012-02-13T07:24:17Z" uid="146930" user="Tom_G3X" version="1" visible="true" />
  <node changeset="10670627" id="1630975627" lat="35.1558177" lon="136.9256364" timestamp="2012-02-13T07:24:17Z" uid="146930" user="Tom_G3X" version="1" visible="true" />
  <node changeset="10670627" id="1630975629" lat="35.1558525" lon="136.9245413" timestamp="2012-02-13T07:24:17Z" uid="146930" user="Tom_G3X" version="1" visible="true" />
  <node changeset="10670627" id="1630975630" lat="35.155869" lon="136.9247015" timestamp="2012-02-13T07:24:17Z" uid="146930" user="Tom_G3X" version="1" visible="true" />
  <node changeset="10670627" id="1630975632" lat="35.155879" lon="136.9256141" timestamp="2012-02-13T07:24:17Z" uid="146930" user="Tom_G3X" version="1" visible="true" />
  <node changeset="10670627" id="1630975634" lat="35.1559403" lon="136.9256303" timestamp="2012-02-13T07:24:17Z" uid="146930" user="Tom_G3X" version="1" visible="true" />
  <node changeset="10670627" id="1630975636" lat="35.1559735" lon="136.9257844" timestamp="2012-02-13T07:24:17Z" uid="146930" user="Tom_G3X" version="1" visible="true" />
  <node changeset="10670627" id="1630975638" lat="35.156015" lon="136.9258351" timestamp="2012-02-13T07:24:17Z" uid="146930" user="Tom_G3X" version="1" visible="true" />
  <node changeset="10670627" id="1630975639" lat="35.156015" lon="136.9265672" timestamp="2012-02-13T07:24:17Z" uid="146930" user="Tom_G3X" version="1" visible="true" />
  <node changeset="10670627" id="1630975640" lat="35.1560398" lon="136.9259203" timestamp="2012-02-13T07:24:17Z" uid="146930" user="Tom_G3X" version="1" visible="true" />
  <node changeset="10670627" id="1630975643" lat="35.1560664" lon="136.9260034" timestamp="2012-02-13T07:24:18Z" uid="146930" user="Tom_G3X" version="1" visible="true" />
  <node changeset="10670627" id="1630975645" lat="35.1561277" lon="136.9265287" timestamp="2012-02-13T07:24:18Z" uid="146930" user="Tom_G3X" version="1" visible="true" />
  <node changeset="24900848" id="1630975661" lat="35.1564626" lon="136.9271854" timestamp="2014-08-21T05:22:19Z" uid="146930" user="Tom_G3X" version="2" visible="true" />
  <node changeset="24900848" id="1630975664" lat="35.1567843" lon="136.9271836" timestamp="2014-08-21T05:22:19Z" uid="146930" user="Tom_G3X" version="2" visible="true" />
  <node changeset="10707773" id="1636125932" lat="35.1554489" lon="136.9247536" timestamp="2012-02-17T04:25:16Z" uid="606278" user="M-STA" version="1" visible="true">
    <tag k="amenity" v="pub" />
    <tag k="name" v="とりのすけ鶴舞店" />
    <tag k="source" v="bing" />
  </node>
  <node changeset="14241510" id="2061997625" lat="35.1554946" lon="136.930954" timestamp="2012-12-11T18:50:45Z" uid="651065" user="futurumspes" version="1" visible="true">
    <tag k="highway" v="crossing" />
    <tag k="source" v="Bing 2010" />
  </node>
  <node changeset="14241510" id="2061997632" lat="35.1554545" lon="136.9311812" timestamp="2012-12-11T18:50:45Z" uid="651065" user="futurumspes" version="1" visible="true">
    <tag k="highway" v="crossing" />
    <tag k="source" v="Bing 2010" />
  </node>
  <node changeset="16202369" id="2141189712" lat="35.155283" lon="136.925436" timestamp="2013-05-20T03:27:46Z" uid="146930" user="Tom_G3X" version="3" visible="true">
    <tag k="amenity" v="restaurant" />
    <tag k="smoking" v="yes" />
    <tag k="wheelchair" v="yes" />
  </node>
  <node changeset="26226720" id="2141190364" lat="35.155239" lon="136.925195" timestamp="2014-10-21T03:16:55Z" uid="146930" user="Tom_G3X" version="2" visible="true">
    <tag k="amenity" v="cafe" />
    <tag k="name" v="LIEBE" />
    <tag k="phone" v="052-733-5843" />
  </node>
  <node changeset="15348393" id="2199190201" lat="35.1558808" lon="136.9249356" timestamp="2013-03-13T08:07:49Z" uid="146930" user="Tom_G3X" version="1" visible="true" />