<?xml version="1.0" encoding="UTF-8"?>

<!-- generated on Fri Nov 15 00:54:50 2013 by SUMO netconvert Version 0.18.0
<?xml version="1.0" encoding="UTF-8"?>

<configuration xmlns:xsi="http://www.w3.org/2001/XMLSchema-instance" xsi:noNamespaceSchemaLocation="http://sumo.sf.net/xsd/netconvertConfiguration.xsd">

    <input>
        <osm-files value="grid9x9.osm"/>
    </input>

    <output>
        <output-file value="grid9x9in.net.xml"/>
    </output>

    <projection>
        <proj.utm value="true"/>
    </projection>

</configuration>
-->

<net version="0.13" xmlns:xsi="http://www.w3.org/2001/XMLSchema-instance" xsi:noNamespaceSchemaLocation="http://sumo.sf.net/xsd/net_file.xsd">

    <location netOffset="-829023.24,586.02" convBoundary="0.00,0.00,2029.57,1995.32" origBoundary="-0.044472,-0.005295,-0.026257,0.012733" projParameter="+proj=utm +zone=30 +ellps=WGS84 +datum=WGS84 +units=m +no_defs"/>

    <edge id=":-2608_0" function="internal">
        <lane id=":-2608_0_0" index="0" speed="6.94" length="2.56" shape="25.17,2.93 24.48,3.03 23.98,3.33 23.68,3.82 23.57,4.51"/>
    </edge>
    <edge id=":-2608_1" function="internal">
        <lane id=":-2608_1_0" index="0" speed="6.94" length="2.41" shape="25.17,2.93 23.93,2.11 23.52,1.28"/>
    </edge>
    <edge id=":-2608_4" function="internal">
        <lane id=":-2608_4_0" index="0" speed="6.94" length="2.41" shape="23.52,1.28 23.93,0.46 25.17,-0.37"/>
    </edge>
    <edge id=":-2608_2" function="internal">
        <lane id=":-2608_2_0" index="0" speed="6.94" length="7.84" shape="20.27,4.48 20.60,2.36 21.52,0.84 23.05,-0.06 25.17,-0.37"/>
    </edge>
    <edge id=":-2608_3" function="internal">
        <lane id=":-2608_3_0" index="0" speed="6.94" length="2.41" shape="20.27,4.48 21.11,3.25 21.94,2.85"/>
    </edge>
    <edge id=":-2608_5" function="internal">
        <lane id=":-2608_5_0" index="0" speed="6.94" length="2.41" shape="21.94,2.85 22.76,3.27 23.57,4.51"/>
    </edge>
    <edge id=":-2610_0" function="internal">
        <lane id=":-2610_0_0" index="0" speed="6.94" length="5.05" shape="24.01,251.48 22.63,251.67 21.64,252.25 21.03,253.22 20.82,254.56"/>
    </edge>
    <edge id=":-2610_1" function="internal">
        <lane id=":-2610_1_0" index="0" speed="6.94" length="10.38" shape="24.01,251.48 21.19,251.08 19.19,249.87 18.00,247.85 17.63,245.03"/>
    </edge>
    <edge id=":-2610_2" function="internal">
        <lane id=":-2610_2_0" index="0" speed="6.94" length="4.82" shape="24.01,251.48 22.77,250.66 22.36,249.83 22.77,249.01 24.01,248.18"/>
    </edge>
    <edge id=":-2610_3" function="internal">
        <lane id=":-2610_3_0" index="0" speed="6.94" length="5.01" shape="20.93,245.06 21.11,246.43 21.68,247.40 22.65,247.99 24.01,248.18"/>
    </edge>
    <edge id=":-2610_4" function="internal">
        <lane id=":-2610_4_0" index="0" speed="6.94" length="9.50" shape="20.93,245.06 20.82,254.56"/>
    </edge>
    <edge id=":-2610_5" function="internal">
        <lane id=":-2610_5_0" index="0" speed="6.94" length="4.82" shape="20.93,245.06 20.09,246.29 19.26,246.70 18.44,246.27 17.63,245.03"/>
    </edge>
    <edge id=":-2610_6" function="internal">
        <lane id=":-2610_6_0" index="0" speed="6.94" length="9.50" shape="17.52,254.53 17.63,245.03"/>
    </edge>
    <edge id=":-2610_7" function="internal">
        <lane id=":-2610_7_0" index="0" speed="6.94" length="10.32" shape="17.52,254.53 17.95,251.75 19.18,249.77 21.20,248.58 24.01,248.18"/>
    </edge>
    <edge id=":-2610_8" function="internal">
        <lane id=":-2610_8_0" index="0" speed="6.94" length="4.82" shape="17.52,254.53 18.36,253.30 19.19,252.90 20.01,253.32 20.82,254.56"/>
    </edge>
    <edge id=":-2612_0" function="internal">
        <lane id=":-2612_0_0" index="0" speed="5.56" length="5.05" shape="21.27,501.04 19.88,501.23 18.89,501.81 18.29,502.77 18.07,504.12"/>
    </edge>
    <edge id=":-2612_1" function="internal">
        <lane id=":-2612_1_0" index="0" speed="6.25" length="10.38" shape="21.27,501.04 18.45,500.64 16.44,499.43 15.25,497.41 14.88,494.59"/>
    </edge>
    <edge id=":-2612_2" function="internal">
        <lane id=":-2612_2_0" index="0" speed="5.56" length="4.82" shape="21.27,501.04 20.03,500.21 19.61,499.39 20.03,498.56 21.26,497.74"/>
    </edge>
    <edge id=":-2612_3" function="internal">
        <lane id=":-2612_3_0" index="0" speed="6.25" length="5.01" shape="18.18,494.62 18.36,495.99 18.93,496.96 19.90,497.54 21.26,497.74"/>
    </edge>
    <edge id=":-2612_4" function="internal">
        <lane id=":-2612_4_0" index="0" speed="6.25" length="9.50" shape="18.18,494.62 18.07,504.12"/>
    </edge>
    <edge id=":-2612_5" function="internal">
        <lane id=":-2612_5_0" index="0" speed="6.94" length="4.82" shape="18.18,494.62 17.34,495.85 16.51,496.25 15.69,495.83 14.88,494.59"/>
    </edge>
    <edge id=":-2612_6" function="internal">
        <lane id=":-2612_6_0" index="0" speed="6.25" length="9.50" shape="14.77,504.09 14.88,494.59"/>
    </edge>
    <edge id=":-2612_7" function="internal">
        <lane id=":-2612_7_0" index="0" speed="5.56" length="10.32" shape="14.77,504.09 15.21,501.31 16.43,499.33 18.45,498.14 21.26,497.74"/>
    </edge>
    <edge id=":-2612_8" function="internal">
        <lane id=":-2612_8_0" index="0" speed="5.56" length="4.82" shape="14.77,504.09 15.61,502.86 16.44,502.45 17.26,502.88 18.07,504.12"/>
    </edge>
    <edge id=":-2614_0" function="internal">
        <lane id=":-2614_0_0" index="0" speed="5.56" length="5.05" shape="18.53,749.59 17.15,749.78 16.15,750.36 15.55,751.32 15.34,752.67"/>
    </edge>
    <edge id=":-2614_1" function="internal">
        <lane id=":-2614_1_0" index="0" speed="5.56" length="10.38" shape="18.53,749.59 15.71,749.19 13.70,747.98 12.52,745.96 12.14,743.14"/>
    </edge>
    <edge id=":-2614_2" function="internal">
        <lane id=":-2614_2_0" index="0" speed="5.56" length="4.82" shape="18.53,749.59 17.29,748.76 16.88,747.94 17.29,747.11 18.53,746.29"/>
    </edge>
    <edge id=":-2614_3" function="internal">
        <lane id=":-2614_3_0" index="0" speed="5.56" length="5.01" shape="15.44,743.17 15.62,744.54 16.20,745.51 17.17,746.10 18.53,746.29"/>
    </edge>
    <edge id=":-2614_4" function="internal">
        <lane id=":-2614_4_0" index="0" speed="5.56" length="9.50" shape="15.44,743.17 15.34,752.67"/>
    </edge>
    <edge id=":-2614_5" function="internal">
        <lane id=":-2614_5_0" index="0" speed="5.56" length="4.82" shape="15.44,743.17 14.60,744.40 13.77,744.80 12.95,744.38 12.14,743.14"/>
    </edge>
    <edge id=":-2614_6" function="internal">
        <lane id=":-2614_6_0" index="0" speed="5.56" length="9.50" shape="12.04,752.64 12.14,743.14"/>
    </edge>
    <edge id=":-2614_7" function="internal">
        <lane id=":-2614_7_0" index="0" speed="5.56" length="10.32" shape="12.04,752.64 12.47,749.86 13.70,747.88 15.71,746.69 18.53,746.29"/>
    </edge>
    <edge id=":-2614_8" function="internal">
        <lane id=":-2614_8_0" index="0" speed="5.56" length="4.82" shape="12.04,752.64 12.88,751.41 13.71,751.00 14.53,751.43 15.34,752.67"/>
    </edge>
    <edge id=":-2616_0" function="internal">
        <lane id=":-2616_0_0" index="0" speed="6.94" length="5.05" shape="276.91,2.77 275.56,2.97 274.59,3.56 274.00,4.55 273.80,5.93"/>
    </edge>
    <edge id=":-2616_1" function="internal">
        <lane id=":-2616_1_0" index="0" speed="6.94" length="9.50" shape="276.91,2.77 267.41,2.78"/>
    </edge>
    <edge id=":-2616_2" function="internal">
        <lane id=":-2616_2_0" index="0" speed="6.94" length="4.82" shape="276.91,2.77 275.67,1.95 275.26,1.12 275.67,0.30 276.91,-0.53"/>
    </edge>
    <edge id=":-2616_3" function="internal">
        <lane id=":-2616_3_0" index="0" speed="6.94" length="9.50" shape="267.41,-0.52 276.91,-0.53"/>
    </edge>
    <edge id=":-2616_4" function="internal">
        <lane id=":-2616_4_0" index="0" speed="6.94" length="10.38" shape="267.41,-0.52 270.23,-0.12 272.24,1.09 273.42,3.10 273.80,5.93"/>
    </edge>
    <edge id=":-2616_5" function="internal">
        <lane id=":-2616_5_0" index="0" speed="6.94" length="4.82" shape="267.41,-0.52 268.65,0.30 269.06,1.13 268.65,1.95 267.41,2.78"/>
    </edge>
    <edge id=":-2616_6" function="internal">
        <lane id=":-2616_6_0" index="0" speed="6.94" length="5.01" shape="270.50,5.89 270.32,4.53 269.74,3.55 268.77,2.97 267.41,2.78"/>
    </edge>
    <edge id=":-2616_7" function="internal">
        <lane id=":-2616_7_0" index="0" speed="6.94" length="10.32" shape="270.50,5.89 270.92,3.08 272.14,1.08 274.13,-0.13 276.91,-0.53"/>
    </edge>
    <edge id=":-2616_8" function="internal">
        <lane id=":-2616_8_0" index="0" speed="6.94" length="4.82" shape="270.50,5.89 271.34,4.66 272.16,4.26 272.99,4.68 273.80,5.93"/>
    </edge>
    <edge id=":-2618_0" function="internal">
        <lane id=":-2618_0_0" index="0" speed="6.94" length="5.11" shape="274.25,251.32 272.87,251.52 271.88,252.11 271.27,253.10 271.06,254.48"/>
    </edge>
    <edge id=":-2618_1" function="internal">
        <lane id=":-2618_1_0" index="0" speed="6.94" length="9.58" shape="274.25,251.32 264.68,251.33"/>
    </edge>
    <edge id=":-2618_2" function="internal">
        <lane id=":-2618_2_0" index="0" speed="6.94" length="10.38" shape="274.25,251.32 271.43,250.92 269.43,249.71 268.24,247.69 267.87,244.87"/>
    </edge>
    <edge id=":-2618_3" function="internal">
        <lane id=":-2618_3_0" index="0" speed="6.94" length="4.82" shape="274.25,251.32 273.02,250.50 272.60,249.67 273.01,248.85 274.25,248.02"/>
    </edge>
    <edge id=":-2618_4" function="internal">
        <lane id=":-2618_4_0" index="0" speed="6.94" length="5.01" shape="271.17,244.91 271.35,246.27 271.92,247.24 272.89,247.83 274.25,248.02"/>
    </edge>
    <edge id=":-2618_5" function="internal">
        <lane id=":-2618_5_0" index="0" speed="6.94" length="9.58" shape="271.17,244.91 271.06,254.48"/>
    </edge>
    <edge id=":-2618_6" function="internal">
        <lane id=":-2618_6_0" index="0" speed="6.94" length="10.39" shape="271.17,244.91 270.73,247.71 269.51,249.72 267.49,250.92 264.68,251.33"/>
    </edge>
    <edge id=":-2618_7" function="internal">
        <lane id=":-2618_7_0" index="0" speed="6.94" length="4.82" shape="271.17,244.91 270.33,246.13 269.50,246.54 268.68,246.12 267.87,244.87"/>
    </edge>
    <edge id=":-2618_8" function="internal">
        <lane id=":-2618_8_0" index="0" speed="6.94" length="5.11" shape="264.67,248.03 266.06,247.83 267.05,247.24 267.65,246.25 267.87,244.87"/>
    </edge>
    <edge id=":-2618_9" function="internal">
        <lane id=":-2618_9_0" index="0" speed="6.94" length="9.58" shape="264.67,248.03 274.25,248.02"/>
    </edge>
    <edge id=":-2618_10" function="internal">
        <lane id=":-2618_10_0" index="0" speed="6.94" length="10.38" shape="264.67,248.03 267.50,248.43 269.50,249.64 270.69,251.66 271.06,254.48"/>
    </edge>
    <edge id=":-2618_11" function="internal">
        <lane id=":-2618_11_0" index="0" speed="6.94" length="4.82" shape="264.67,248.03 265.91,248.85 266.33,249.68 265.91,250.50 264.68,251.33"/>
    </edge>
    <edge id=":-2618_12" function="internal">
        <lane id=":-2618_12_0" index="0" speed="6.94" length="5.01" shape="267.76,254.44 267.58,253.08 267.01,252.11 266.04,251.52 264.68,251.33"/>
    </edge>
    <edge id=":-2618_13" function="internal">
        <lane id=":-2618_13_0" index="0" speed="6.94" length="9.58" shape="267.76,254.44 267.87,244.87"/>
    </edge>
    <edge id=":-2618_14" function="internal">
        <lane id=":-2618_14_0" index="0" speed="6.94" length="10.39" shape="267.76,254.44 268.19,251.64 269.42,249.63 271.44,248.42 274.25,248.02"/>
    </edge>
    <edge id=":-2618_15" function="internal">
        <lane id=":-2618_15_0" index="0" speed="6.94" length="4.82" shape="267.76,254.44 268.60,253.22 269.43,252.81 270.25,253.23 271.06,254.48"/>
    </edge>
    <edge id=":-2620_0" function="internal">
        <lane id=":-2620_0_0" index="0" speed="6.25" length="5.11" shape="271.51,500.88 270.12,501.08 269.13,501.67 268.53,502.66 268.31,504.04"/>
    </edge>
    <edge id=":-2620_1" function="internal">
        <lane id=":-2620_1_0" index="0" speed="6.25" length="9.58" shape="271.51,500.88 261.93,500.89"/>
    </edge>
    <edge id=":-2620_2" function="internal">
        <lane id=":-2620_2_0" index="0" speed="6.94" length="10.38" shape="271.51,500.88 268.69,500.48 266.68,499.27 265.49,497.25 265.12,494.43"/>
    </edge>
    <edge id=":-2620_3" function="internal">
        <lane id=":-2620_3_0" index="0" speed="6.94" length="4.82" shape="271.51,500.88 270.27,500.06 269.86,499.23 270.27,498.41 271.50,497.58"/>
    </edge>
    <edge id=":-2620_4" function="internal">
        <lane id=":-2620_4_0" index="0" speed="6.94" length="5.01" shape="268.42,494.46 268.60,495.83 269.17,496.80 270.14,497.39 271.50,497.58"/>
    </edge>
    <edge id=":-2620_5" function="internal">
        <lane id=":-2620_5_0" index="0" speed="6.25" length="9.58" shape="268.42,494.46 268.31,504.04"/>
    </edge>
    <edge id=":-2620_6" function="internal">
        <lane id=":-2620_6_0" index="0" speed="6.25" length="10.39" shape="268.42,494.46 267.99,497.27 266.76,499.28 264.74,500.48 261.93,500.89"/>
    </edge>
    <edge id=":-2620_7" function="internal">
        <lane id=":-2620_7_0" index="0" speed="6.94" length="4.82" shape="268.42,494.46 267.58,495.69 266.75,496.09 265.93,495.67 265.12,494.43"/>
    </edge>
    <edge id=":-2620_8" function="internal">
        <lane id=":-2620_8_0" index="0" speed="6.25" length="5.11" shape="261.93,497.59 263.31,497.39 264.30,496.79 264.91,495.81 265.12,494.43"/>
    </edge>
    <edge id=":-2620_9" function="internal">
        <lane id=":-2620_9_0" index="0" speed="6.25" length="9.58" shape="261.93,497.59 271.50,497.58"/>
    </edge>
    <edge id=":-2620_10" function="internal">
        <lane id=":-2620_10_0" index="0" speed="5.56" length="10.38" shape="261.93,497.59 264.75,497.99 266.75,499.20 267.94,501.21 268.31,504.04"/>
    </edge>
    <edge id=":-2620_11" function="internal">
        <lane id=":-2620_11_0" index="0" speed="5.56" length="4.82" shape="261.93,497.59 263.17,498.41 263.58,499.23 263.17,500.06 261.93,500.89"/>
    </edge>
    <edge id=":-2620_12" function="internal">
        <lane id=":-2620_12_0" index="0" speed="5.56" length="5.01" shape="265.01,504.00 264.83,502.64 264.26,501.66 263.29,501.08 261.93,500.89"/>
    </edge>
    <edge id=":-2620_13" function="internal">
        <lane id=":-2620_13_0" index="0" speed="6.25" length="9.58" shape="265.01,504.00 265.12,494.43"/>
    </edge>
    <edge id=":-2620_14" function="internal">
        <lane id=":-2620_14_0" index="0" speed="6.25" length="10.39" shape="265.01,504.00 265.45,501.19 266.67,499.19 268.69,497.98 271.50,497.58"/>
    </edge>
    <edge id=":-2620_15" function="internal">
        <lane id=":-2620_15_0" index="0" speed="5.56" length="4.82" shape="265.01,504.00 265.85,502.77 266.68,502.37 267.50,502.79 268.31,504.04"/>
    </edge>
    <edge id=":-2622_0" function="internal">
        <lane id=":-2622_0_0" index="0" speed="6.25" length="5.11" shape="268.77,749.43 267.39,749.63 266.39,750.22 265.79,751.21 265.58,752.59"/>
    </edge>
    <edge id=":-2622_1" function="internal">
        <lane id=":-2622_1_0" index="0" speed="6.25" length="9.58" shape="268.77,749.43 259.19,749.44"/>
    </edge>
    <edge id=":-2622_2" function="internal">
        <lane id=":-2622_2_0" index="0" speed="6.25" length="10.38" shape="268.77,749.43 265.95,749.03 263.94,747.82 262.76,745.80 262.38,742.98"/>
    </edge>
    <edge id=":-2622_3" function="internal">
        <lane id=":-2622_3_0" index="0" speed="6.94" length="4.82" shape="268.77,749.43 267.53,748.61 267.12,747.78 267.53,746.96 268.77,746.13"/>
    </edge>
    <edge id=":-2622_4" function="internal">
        <lane id=":-2622_4_0" index="0" speed="6.25" length="5.01" shape="265.68,743.01 265.86,744.38 266.44,745.35 267.41,745.94 268.77,746.13"/>
    </edge>
    <edge id=":-2622_5" function="internal">
        <lane id=":-2622_5_0" index="0" speed="5.56" length="9.58" shape="265.68,743.01 265.58,752.59"/>
    </edge>
    <edge id=":-2622_6" function="internal">
        <lane id=":-2622_6_0" index="0" speed="5.56" length="10.39" shape="265.68,743.01 265.25,745.82 264.03,747.83 262.01,749.03 259.19,749.44"/>
    </edge>
    <edge id=":-2622_7" function="internal">
        <lane id=":-2622_7_0" index="0" speed="5.56" length="4.82" shape="265.68,743.01 264.84,744.24 264.02,744.65 263.19,744.22 262.38,742.98"/>
    </edge>
    <edge id=":-2622_8" function="internal">
        <lane id=":-2622_8_0" index="0" speed="5.56" length="5.11" shape="259.19,746.14 260.58,745.94 261.57,745.35 262.17,744.36 262.38,742.98"/>
    </edge>
    <edge id=":-2622_9" function="internal">
        <lane id=":-2622_9_0" index="0" speed="6.25" length="9.58" shape="259.19,746.14 268.77,746.13"/>
    </edge>
    <edge id=":-2622_10" function="internal">
        <lane id=":-2622_10_0" index="0" speed="5.56" length="10.38" shape="259.19,746.14 262.01,746.54 264.02,747.75 265.21,749.76 265.58,752.59"/>
    </edge>
    <edge id=":-2622_11" function="internal">
        <lane id=":-2622_11_0" index="0" speed="5.56" length="4.82" shape="259.19,746.14 260.43,746.96 260.84,747.79 260.43,748.61 259.19,749.44"/>
    </edge>
    <edge id=":-2622_12" function="internal">
        <lane id=":-2622_12_0" index="0" speed="5.56" length="5.01" shape="262.28,752.55 262.10,751.19 261.52,750.21 260.56,749.63 259.19,749.44"/>
    </edge>
    <edge id=":-2622_13" function="internal">
        <lane id=":-2622_13_0" index="0" speed="5.56" length="9.58" shape="262.28,752.55 262.38,742.98"/>
    </edge>
    <edge id=":-2622_14" function="internal">
        <lane id=":-2622_14_0" index="0" speed="6.25" length="10.39" shape="262.28,752.55 262.71,749.74 263.94,747.74 265.96,746.53 268.77,746.13"/>
    </edge>
    <edge id=":-2622_15" function="internal">
        <lane id=":-2622_15_0" index="0" speed="5.56" length="4.82" shape="262.28,752.55 263.12,751.32 263.95,750.92 264.77,751.34 265.58,752.59"/>
    </edge>
    <edge id=":-2624_0" function="internal">
        <lane id=":-2624_0_0" index="0" speed="6.94" length="5.05" shape="527.15,2.61 525.80,2.81 524.83,3.40 524.25,4.39 524.04,5.77"/>
    </edge>
    <edge id=":-2624_1" function="internal">
        <lane id=":-2624_1_0" index="0" speed="6.94" length="9.50" shape="527.15,2.61 517.65,2.62"/>
    </edge>
    <edge id=":-2624_2" function="internal">
        <lane id=":-2624_2_0" index="0" speed="6.94" length="4.82" shape="527.15,2.61 525.92,1.79 525.50,0.96 525.92,0.14 527.15,-0.69"/>
    </edge>
    <edge id=":-2624_3" function="internal">
        <lane id=":-2624_3_0" index="0" speed="6.94" length="9.50" shape="517.65,-0.68 527.15,-0.69"/>
    </edge>
    <edge id=":-2624_4" function="internal">
        <lane id=":-2624_4_0" index="0" speed="6.94" length="10.38" shape="517.65,-0.68 520.47,-0.28 522.48,0.93 523.67,2.94 524.04,5.77"/>
    </edge>
    <edge id=":-2624_5" function="internal">
        <lane id=":-2624_5_0" index="0" speed="6.94" length="4.82" shape="517.65,-0.68 518.89,0.14 519.30,0.97 518.89,1.79 517.65,2.62"/>
    </edge>
    <edge id=":-2624_6" function="internal">
        <lane id=":-2624_6_0" index="0" speed="6.94" length="5.01" shape="520.74,5.73 520.56,4.37 519.98,3.39 519.02,2.81 517.65,2.62"/>
    </edge>
    <edge id=":-2624_7" function="internal">
        <lane id=":-2624_7_0" index="0" speed="6.94" length="10.32" shape="520.74,5.73 521.17,2.92 522.38,0.92 524.37,-0.29 527.15,-0.69"/>
    </edge>
    <edge id=":-2624_8" function="internal">
        <lane id=":-2624_8_0" index="0" speed="6.94" length="4.82" shape="520.74,5.73 521.58,4.50 522.41,4.10 523.23,4.52 524.04,5.77"/>
    </edge>
    <edge id=":-2626_0" function="internal">
        <lane id=":-2626_0_0" index="0" speed="6.94" length="5.11" shape="524.49,251.16 523.11,251.36 522.12,251.95 521.52,252.94 521.30,254.32"/>
    </edge>
    <edge id=":-2626_1" function="internal">
        <lane id=":-2626_1_0" index="0" speed="6.94" length="9.58" shape="524.49,251.16 514.92,251.17"/>
    </edge>
    <edge id=":-2626_2" function="internal">
        <lane id=":-2626_2_0" index="0" speed="6.94" length="10.38" shape="524.49,251.16 521.67,250.76 519.67,249.55 518.48,247.53 518.11,244.71"/>
    </edge>
    <edge id=":-2626_3" function="internal">
        <lane id=":-2626_3_0" index="0" speed="6.94" length="4.82" shape="524.49,251.16 523.26,250.34 522.84,249.51 523.26,248.69 524.49,247.86"/>
    </edge>
    <edge id=":-2626_4" function="internal">
        <lane id=":-2626_4_0" index="0" speed="6.94" length="5.01" shape="521.41,244.75 521.59,246.11 522.16,247.08 523.13,247.67 524.49,247.86"/>
    </edge>
    <edge id=":-2626_5" function="internal">
        <lane id=":-2626_5_0" index="0" speed="6.94" length="9.58" shape="521.41,244.75 521.30,254.32"/>
    </edge>
    <edge id=":-2626_6" function="internal">
        <lane id=":-2626_6_0" index="0" speed="6.94" length="10.39" shape="521.41,244.75 520.98,247.55 519.75,249.56 517.73,250.77 514.92,251.17"/>
    </edge>
    <edge id=":-2626_7" function="internal">
        <lane id=":-2626_7_0" index="0" speed="6.94" length="4.82" shape="521.41,244.75 520.57,245.97 519.74,246.38 518.92,245.96 518.11,244.71"/>
    </edge>
    <edge id=":-2626_8" function="internal">
        <lane id=":-2626_8_0" index="0" speed="6.94" length="5.11" shape="514.92,247.87 516.30,247.67 517.29,247.08 517.90,246.09 518.11,244.71"/>
    </edge>
    <edge id=":-2626_9" function="internal">
        <lane id=":-2626_9_0" index="0" speed="6.94" length="9.58" shape="514.92,247.87 524.49,247.86"/>
    </edge>
    <edge id=":-2626_10" function="internal">
        <lane id=":-2626_10_0" index="0" speed="6.94" length="10.38" shape="514.92,247.87 517.74,248.27 519.74,249.48 520.93,251.50 521.30,254.32"/>
    </edge>
    <edge id=":-2626_11" function="internal">
        <lane id=":-2626_11_0" index="0" speed="6.94" length="4.82" shape="514.92,247.87 516.15,248.69 516.57,249.52 516.16,250.34 514.92,251.17"/>
    </edge>
    <edge id=":-2626_12" function="internal">
        <lane id=":-2626_12_0" index="0" speed="6.94" length="5.01" shape="518.00,254.28 517.82,252.92 517.25,251.95 516.28,251.36 514.92,251.17"/>
    </edge>
    <edge id=":-2626_13" function="internal">
        <lane id=":-2626_13_0" index="0" speed="6.94" length="9.58" shape="518.00,254.28 518.11,244.71"/>
    </edge>
    <edge id=":-2626_14" function="internal">
        <lane id=":-2626_14_0" index="0" speed="6.94" length="10.39" shape="518.00,254.28 518.44,251.48 519.66,249.47 521.68,248.27 524.49,247.86"/>
    </edge>
    <edge id=":-2626_15" function="internal">
        <lane id=":-2626_15_0" index="0" speed="6.94" length="4.82" shape="518.00,254.28 518.84,253.06 519.67,252.65 520.49,253.07 521.30,254.32"/>
    </edge>
    <edge id=":-2628_0" function="internal">
        <lane id=":-2628_0_0" index="0" speed="8.33" length="4.99" shape="524.94,504.02 523.59,504.21 522.62,504.79 522.03,505.75 521.82,507.10"/>
    </edge>
    <edge id=":-2628_1" function="internal">
        <lane id=":-2628_1_0" index="0" speed="7.64" length="16.47" shape="524.94,504.02 519.67,503.51 515.70,502.37 512.34,501.24 508.87,500.73"/>
    </edge>
    <edge id=":-2628_2" function="internal">
        <lane id=":-2628_2_0" index="0" speed="7.64" length="15.59" shape="524.93,500.72 520.72,500.11 517.73,498.28 515.95,495.24 515.40,490.97"/>
    </edge>
    <edge id=":-2628_3" function="internal">
        <lane id=":-2628_3_0" index="0" speed="8.33" length="4.82" shape="524.93,500.72 523.70,499.89 523.28,499.07 523.69,498.24 524.93,497.42"/>
    </edge>
    <edge id=":-2628_4" function="internal">
        <lane id=":-2628_4_0" index="0" speed="7.64" length="7.72" shape="518.70,491.00 519.07,492.37 520.24,493.34 522.19,493.93 524.93,494.12"/>
    </edge>
    <edge id=":-2628_5" function="internal">
        <lane id=":-2628_5_0" index="0" speed="7.64" length="16.06" shape="518.70,491.00 518.66,494.49 518.62,497.90 518.58,501.87 518.52,507.07"/>
    </edge>
    <edge id=":-2628_6" function="internal">
        <lane id=":-2628_6_0" index="0" speed="6.94" length="15.72" shape="518.70,491.00 518.04,495.26 516.19,498.29 513.13,500.12 508.87,500.73"/>
    </edge>
    <edge id=":-2628_7" function="internal">
        <lane id=":-2628_7_0" index="0" speed="6.94" length="4.82" shape="518.70,491.00 517.86,492.23 517.03,492.64 516.21,492.21 515.40,490.97"/>
    </edge>
    <edge id=":-2628_8" function="internal">
        <lane id=":-2628_8_0" index="0" speed="6.94" length="10.45" shape="508.87,497.43 511.70,497.02 513.73,495.81 514.96,493.79 515.40,490.97"/>
    </edge>
    <edge id=":-2628_9" function="internal">
        <lane id=":-2628_9_0" index="0" speed="7.64" length="16.06" shape="508.87,497.43 512.36,497.43 515.76,497.42 519.74,497.42 524.93,497.42"/>
    </edge>
    <edge id=":-2628_10" function="internal">
        <lane id=":-2628_10_0" index="0" speed="7.64" length="15.59" shape="508.87,497.43 513.13,498.03 516.16,499.83 517.96,502.85 518.52,507.07"/>
    </edge>
    <edge id=":-2628_11" function="internal">
        <lane id=":-2628_11_0" index="0" speed="6.94" length="4.82" shape="508.87,497.43 510.11,498.25 510.52,499.08 510.11,499.90 508.87,500.73"/>
    </edge>
    <edge id=":-2628_12" function="internal">
        <lane id=":-2628_12_0" index="0" speed="7.64" length="7.72" shape="511.92,506.99 511.76,504.25 511.19,502.29 510.23,501.12 508.87,500.73"/>
    </edge>
    <edge id=":-2628_13" function="internal">
        <lane id=":-2628_13_0" index="0" speed="7.64" length="16.47" shape="511.92,506.99 512.49,501.73 513.67,497.78 514.84,494.43 515.40,490.97"/>
    </edge>
    <edge id=":-2628_14" function="internal">
        <lane id=":-2628_14_0" index="0" speed="8.33" length="15.54" shape="515.22,507.03 515.87,502.83 517.70,499.82 520.72,498.02 524.93,497.42"/>
    </edge>
    <edge id=":-2628_15" function="internal">
        <lane id=":-2628_15_0" index="0" speed="8.33" length="4.82" shape="515.22,507.03 516.06,505.80 516.89,505.40 517.71,505.82 518.52,507.07"/>
    </edge>
    <edge id=":-2630_0" function="internal">
        <lane id=":-2630_0_0" index="0" speed="7.64" length="5.17" shape="522.31,749.27 520.93,749.47 519.93,750.08 519.33,751.09 519.12,752.51"/>
    </edge>
    <edge id=":-2630_1" function="internal">
        <lane id=":-2630_1_0" index="0" speed="6.94" length="16.18" shape="522.31,749.27 518.38,749.27 514.22,749.28 510.07,749.28 506.13,749.28"/>
    </edge>
    <edge id=":-2630_2" function="internal">
        <lane id=":-2630_2_0" index="0" speed="7.64" length="13.17" shape="522.31,749.27 518.05,748.87 515.01,747.65 513.20,745.62 512.63,742.78"/>
    </edge>
    <edge id=":-2630_3" function="internal">
        <lane id=":-2630_3_0" index="0" speed="6.94" length="4.82" shape="522.31,749.27 521.07,748.45 520.66,747.62 521.07,746.80 522.31,745.97"/>
    </edge>
    <edge id=":-2630_4" function="internal">
        <lane id=":-2630_4_0" index="0" speed="7.64" length="5.01" shape="519.23,742.85 519.40,744.22 519.98,745.19 520.95,745.78 522.31,745.97"/>
    </edge>
    <edge id=":-2630_5" function="internal">
        <lane id=":-2630_5_0" index="0" speed="8.33" length="9.65" shape="519.23,742.85 519.12,752.51"/>
    </edge>
    <edge id=":-2630_6" function="internal">
        <lane id=":-2630_6_0" index="0" speed="8.33" length="9.65" shape="515.93,742.82 515.82,752.47"/>
    </edge>
    <edge id=":-2630_7" function="internal">
        <lane id=":-2630_7_0" index="0" speed="7.64" length="13.19" shape="515.93,742.82 515.29,745.64 513.44,747.66 510.39,748.87 506.13,749.28"/>
    </edge>
    <edge id=":-2630_8" function="internal">
        <lane id=":-2630_8_0" index="0" speed="8.33" length="4.82" shape="515.93,742.82 515.09,744.05 514.26,744.45 513.44,744.03 512.63,742.78"/>
    </edge>
    <edge id=":-2630_9" function="internal">
        <lane id=":-2630_9_0" index="0" speed="7.64" length="5.17" shape="506.13,745.98 507.52,745.78 508.51,745.17 509.11,744.16 509.33,742.74"/>
    </edge>
    <edge id=":-2630_10" function="internal">
        <lane id=":-2630_10_0" index="0" speed="6.94" length="16.18" shape="506.13,745.98 510.07,745.98 514.22,745.98 518.38,745.97 522.31,745.97"/>
    </edge>
    <edge id=":-2630_11" function="internal">
        <lane id=":-2630_11_0" index="0" speed="7.64" length="13.17" shape="506.13,745.98 510.40,746.38 513.43,747.60 515.24,749.63 515.82,752.47"/>
    </edge>
    <edge id=":-2630_12" function="internal">
        <lane id=":-2630_12_0" index="0" speed="6.94" length="4.82" shape="506.13,745.98 507.37,746.80 507.78,747.63 507.37,748.45 506.13,749.28"/>
    </edge>
    <edge id=":-2630_13" function="internal">
        <lane id=":-2630_13_0" index="0" speed="7.64" length="5.01" shape="509.22,752.40 509.04,751.03 508.47,750.06 507.50,749.47 506.13,749.28"/>
    </edge>
    <edge id=":-2630_14" function="internal">
        <lane id=":-2630_14_0" index="0" speed="8.33" length="9.65" shape="509.22,752.40 509.33,742.74"/>
    </edge>
    <edge id=":-2630_15" function="internal">
        <lane id=":-2630_15_0" index="0" speed="8.33" length="9.65" shape="512.52,752.43 512.63,742.78"/>
    </edge>
    <edge id=":-2630_16" function="internal">
        <lane id=":-2630_16_0" index="0" speed="7.64" length="13.19" shape="512.52,752.43 513.16,749.61 515.00,747.59 518.05,746.38 522.31,745.97"/>
    </edge>
    <edge id=":-2630_17" function="internal">
        <lane id=":-2630_17_0" index="0" speed="8.33" length="4.82" shape="512.52,752.43 513.36,751.20 514.19,750.80 515.01,751.22 515.82,752.47"/>
    </edge>
    <edge id=":-2632_0" function="internal">
        <lane id=":-2632_0_0" index="0" speed="6.94" length="5.05" shape="778.41,2.45 777.06,2.65 776.09,3.24 775.50,4.23 775.29,5.61"/>
    </edge>
    <edge id=":-2632_1" function="internal">