<?xml version="1.0" encoding="UTF-8"?>

<!-- generated on Fri Oct 25 12:22:13 2013 by SUMO netconvert Version 0.17.1
<?xml version="1.0" encoding="UTF-8"?>

<configuration xmlns:xsi="http://www.w3.org/2001/XMLSchema-instance" xsi:noNamespaceSchemaLocation="http://sumo.sf.net/xsd/netconvertConfiguration.xsd">

    <input>
        <osm-files value="grid9x9.osm"/>
    </input>

    <output>
        <output-file value="grid9x9.net.xml"/>
    </output>

    <projection>
        <proj.utm value="true"/>
    </projection>

    <processing>
        <no-internal-links value="true"/>
    </processing>

</configuration>
-->

<net version="0.13" xmlns:xsi="http://www.w3.org/2001/XMLSchema-instance" xsi:noNamespaceSchemaLocation="http://sumo.sf.net/xsd/net_file.xsd">

    <location netOffset="-829023.24,586.02" convBoundary="0.00,0.00,2029.57,1995.32" origBoundary="-0.044472,-0.005295,-0.026257,0.012733" projParameter="+proj=utm +zone=30 +ellps=WGS84 +datum=WGS84 +units=m +no_defs"/>

    <edge id="--2770" from="-2608" to="-2610" priority="6" type="highway.tertiary">
        <lane id="--2770_0" index="0" speed="6.94" length="240.57" shape="23.57,4.51 20.93,245.06"/>
    </edge>
    <edge id="--2772" from="-2616" to="-2608" priority="6" type="highway.tertiary">
        <lane id="--2772_0" index="0" speed="6.94" length="242.24" shape="267.41,2.78 25.17,2.93"/>
    </edge>
    <edge id="--2774" from="-2610" to="-2612" priority="6" type="highway.tertiary">
        <lane id="--2774_0" index="0" speed="6.94" length="240.07" shape="20.82,254.56 18.18,494.62"/>
    </edge>
    <edge id="--2776" from="-2618" to="-2610" priority="6" type="highway.tertiary">
        <lane id="--2776_0" index="0" speed="6.94" length="240.66" shape="264.68,251.33 24.01,251.48"/>
    </edge>
    <edge id="--2778" from="-2612" to="-2614" priority="6" type="highway.tertiary">
        <lane id="--2778_0" index="0" speed="5.56" length="239.07" shape="18.07,504.12 15.44,743.17"/>
    </edge>
    <edge id="--2780" from="-2620" to="-2612" priority="6" type="highway.tertiary">
        <lane id="--2780_0" index="0" speed="5.56" length="240.66" shape="261.93,500.89 21.27,501.04"/>
    </edge>
    <edge id="--2782" from="-2614" to="-2758" priority="6" type="highway.tertiary">
        <lane id="--2782_0" index="0" speed="5.56" length="240.77" shape="15.34,752.67 12.69,993.43"/>
    </edge>
    <edge id="--2784" from="-2622" to="-2614" priority="6" type="highway.tertiary">
        <lane id="--2784_0" index="0" speed="5.56" length="240.66" shape="259.19,749.44 18.53,749.59"/>
    </edge>
    <edge id="--2786" from="-2616" to="-2618" priority="6" type="highway.tertiary">
        <lane id="--2786_0" index="0" speed="6.94" length="238.99" shape="273.80,5.93 271.17,244.91"/>
    </edge>
    <edge id="--2788" from="-2624" to="-2616" priority="6" type="highway.tertiary">
        <lane id="--2788_0" index="0" speed="6.94" length="240.74" shape="517.65,2.62 276.91,2.77"/>
    </edge>
    <edge id="--2790" from="-2618" to="-2620" priority="6" type="highway.tertiary">
        <lane id="--2790_0" index="0" speed="6.94" length="240.00" shape="271.06,254.48 268.42,494.46"/>
    </edge>
    <edge id="--2792" from="-2626" to="-2618" priority="6" type="highway.tertiary">
        <lane id="--2792_0" index="0" speed="6.94" length="240.67" shape="514.92,251.17 274.25,251.32"/>
    </edge>
    <edge id="--2794" from="-2620" to="-2622" priority="6" type="highway.tertiary">
        <lane id="--2794_0" index="0" speed="5.56" length="238.99" shape="268.31,504.04 265.68,743.01"/>
    </edge>
    <edge id="--2796" from="-2628" to="-2620" priority="6" type="highway.tertiary">
        <lane id="--2796_0" index="0" speed="6.94" length="237.37" shape="508.87,500.73 271.51,500.88"/>
    </edge>
    <edge id="--2798" from="-2622" to="-2756" priority="6" type="highway.tertiary">
        <lane id="--2798_0" index="0" speed="5.56" length="240.70" shape="265.58,752.59 262.93,993.27"/>
    </edge>
    <edge id="--2800" from="-2630" to="-2622" priority="6" type="highway.tertiary">
        <lane id="--2800_0" index="0" speed="6.94" length="237.37" shape="506.13,749.28 268.77,749.43"/>
    </edge>
    <edge id="--2802" from="-2624" to="-2626" priority="6" type="highway.tertiary">
        <lane id="--2802_0" index="0" speed="6.94" length="238.99" shape="524.04,5.77 521.41,244.75"/>
    </edge>
    <edge id="--2804" from="-2632" to="-2624" priority="6" type="highway.tertiary">
        <lane id="--2804_0" index="0" speed="6.94" length="241.76" shape="768.91,2.46 527.15,2.61"/>
    </edge>
    <edge id="--2806" from="-2626" to="-2628" priority="6" type="highway.tertiary">
        <lane id="--2806_0" index="0" speed="6.94" length="236.70" shape="521.30,254.32 518.70,491.00"/>
    </edge>
    <edge id="--2808" from="-2634" to="-2626" priority="6" type="highway.tertiary">
        <lane id="--2808_0" index="0" speed="6.94" length="241.68" shape="766.17,251.01 524.49,251.16"/>
    </edge>
    <edge id="--2810" from="-2628" to="-2630" priority="6" type="highway.tertiary">
        <lane id="--2810_0" index="0" speed="8.33" length="235.77" shape="521.82,507.10 519.23,742.85"/>
        <lane id="--2810_1" index="1" speed="8.33" length="235.77" shape="518.52,507.07 515.93,742.82"/>
    </edge>
    <edge id="--2812" from="-2636" to="-2628" priority="6" type="highway.tertiary">
        <lane id="--2812_0" index="0" speed="8.33" length="238.45" shape="763.39,503.87 524.94,504.02"/>
        <lane id="--2812_1" index="1" speed="8.33" length="238.45" shape="763.39,500.57 524.93,500.72"/>
    </edge>
    <edge id="--2814" from="-2630" to="-2754" priority="6" type="highway.tertiary">
        <lane id="--2814_0" index="0" speed="8.33" length="240.62" shape="519.12,752.51 516.47,993.11"/>
        <lane id="--2814_1" index="1" speed="8.33" length="240.62" shape="515.82,752.47 513.17,993.08"/>
    </edge>
    <edge id="--2816" from="-2638" to="-2630" priority="6" type="highway.tertiary">
        <lane id="--2816_0" index="0" speed="6.94" length="238.38" shape="760.69,749.12 522.31,749.27"/>
    </edge>
    <edge id="--2818" from="-2632" to="-2634" priority="6" type="highway.tertiary">
        <lane id="--2818_0" index="0" speed="6.94" length="238.99" shape="775.29,5.61 772.66,244.59"/>
    </edge>
    <edge id="--2820" from="-2750" to="-2632" priority="6" type="highway.tertiary">
        <lane id="--2820_0" index="0" speed="6.94" length="242.51" shape="1020.92,2.27 778.41,2.45"/>
    </edge>
    <edge id="--2822" from="-2634" to="-2636" priority="6" type="highway.tertiary">
        <lane id="--2822_0" index="0" speed="6.94" length="236.70" shape="772.56,254.16 769.95,490.84"/>
    </edge>
    <edge id="--2824" from="-2748" to="-2634" priority="6" type="highway.tertiary">
        <lane id="--2824_0" index="0" speed="6.94" length="242.43" shape="1018.18,250.83 775.75,251.00"/>
    </edge>
    <edge id="--2826" from="-2636" to="-2638" priority="6" type="highway.tertiary">
        <lane id="--2826_0" index="0" speed="6.94" length="235.69" shape="769.77,507.02 767.18,742.70"/>
    </edge>
    <edge id="--2828" from="-2746" to="-2636" priority="6" type="highway.tertiary">
        <lane id="--2828_0" index="0" speed="8.33" length="242.35" shape="1015.40,503.69 773.04,503.86"/>
        <lane id="--2828_1" index="1" speed="8.33" length="242.35" shape="1015.40,500.39 773.04,500.56"/>
    </edge>
    <edge id="--2830" from="-2638" to="-2752" priority="6" type="highway.tertiary">
        <lane id="--2830_0" index="0" speed="6.94" length="240.70" shape="767.07,752.27 764.42,992.95"/>
    </edge>
    <edge id="--2832" from="-2740" to="-2638" priority="6" type="highway.tertiary">
        <lane id="--2832_0" index="0" speed="6.94" length="242.43" shape="1012.70,748.94 770.27,749.11"/>
    </edge>
    <edge id="--2834" from="-2642" to="-2640" priority="6" type="highway.tertiary">
        <lane id="--2834_0" index="0" speed="6.94" length="240.56" shape="4.34,1751.50 1.69,1992.05"/>
    </edge>
    <edge id="--2836" from="-2646" to="-2640" priority="6" type="highway.tertiary">
        <lane id="--2836_0" index="0" speed="6.94" length="242.24" shape="245.53,1996.82 3.29,1996.97"/>
    </edge>
    <edge id="--2838" from="-2644" to="-2642" priority="6" type="highway.tertiary">
        <lane id="--2838_0" index="0" speed="6.94" length="239.07" shape="7.08,1502.95 4.44,1742.00"/>
    </edge>
    <edge id="--2840" from="-2648" to="-2642" priority="6" type="highway.tertiary">
        <lane id="--2840_0" index="0" speed="6.94" length="240.66" shape="248.19,1748.27 7.53,1748.42"/>
    </edge>
    <edge id="--2842" from="-2652" to="-2644" priority="6" type="highway.tertiary">
        <lane id="--2842_0" index="0" speed="5.56" length="240.07" shape="9.82,1253.39 7.18,1493.45"/>
    </edge>
    <edge id="--2844" from="-2650" to="-2644" priority="6" type="highway.tertiary">
        <lane id="--2844_0" index="0" speed="5.56" length="240.66" shape="250.93,1499.72 10.27,1499.87"/>
    </edge>
    <edge id="--2846" from="-2648" to="-2646" priority="6" type="highway.tertiary">
        <lane id="--2846_0" index="0" speed="6.94" length="238.99" shape="254.58,1751.42 251.94,1990.40"/>
    </edge>
    <edge id="--2848" from="-2656" to="-2646" priority="6" type="highway.tertiary">
        <lane id="--2848_0" index="0" speed="6.94" length="240.74" shape="495.77,1996.66 255.03,1996.81"/>
    </edge>
    <edge id="--2850" from="-2650" to="-2648" priority="6" type="highway.tertiary">
        <lane id="--2850_0" index="0" speed="6.94" length="238.99" shape="257.31,1502.87 254.68,1741.84"/>
    </edge>
    <edge id="--2852" from="-2658" to="-2648" priority="6" type="highway.tertiary">
        <lane id="--2852_0" index="0" speed="6.94" length="240.67" shape="498.43,1748.11 257.77,1748.26"/>
    </edge>
    <edge id="--2854" from="-2654" to="-2650" priority="6" type="highway.tertiary">
        <lane id="--2854_0" index="0" speed="5.56" length="240.00" shape="260.06,1253.31 257.42,1493.29"/>
    </edge>
    <edge id="--2856" from="-2660" to="-2650" priority="6" type="highway.tertiary">
        <lane id="--2856_0" index="0" speed="6.94" length="237.44" shape="497.95,1499.56 260.51,1499.71"/>
    </edge>
    <edge id="--2858" from="-2758" to="-2652" priority="6" type="highway.tertiary">
        <lane id="--2858_0" index="0" speed="5.56" length="240.98" shape="12.58,1002.93 9.93,1243.89"/>
    </edge>
    <edge id="--2860" from="-2654" to="-2652" priority="6" type="highway.tertiary">
        <lane id="--2860_0" index="0" speed="5.56" length="240.66" shape="253.68,1250.16 13.02,1250.31"/>
    </edge>
    <edge id="--2862" from="-2756" to="-2654" priority="6" type="highway.tertiary">
        <lane id="--2862_0" index="0" speed="5.56" length="240.90" shape="262.82,1002.85 260.17,1243.74"/>
    </edge>
    <edge id="--2864" from="-2662" to="-2654" priority="6" type="highway.tertiary">
        <lane id="--2864_0" index="0" speed="6.94" length="237.37" shape="500.62,1250.00 263.26,1250.15"/>
    </edge>
    <edge id="--2866" from="-2658" to="-2656" priority="6" type="highway.tertiary">
        <lane id="--2866_0" index="0" speed="6.94" length="238.99" shape="504.82,1751.26 502.18,1990.24"/>
    </edge>
    <edge id="--2868" from="-2664" to="-2656" priority="6" type="highway.tertiary">
        <lane id="--2868_0" index="0" speed="6.94" length="241.75" shape="747.03,1996.51 505.27,1996.66"/>
    </edge>
    <edge id="--2870" from="-2660" to="-2658" priority="6" type="highway.tertiary">
        <lane id="--2870_0" index="0" speed="6.94" length="235.77" shape="507.52,1505.94 504.92,1741.69"/>
    </edge>
    <edge id="--2872" from="-2666" to="-2658" priority="6" type="highway.tertiary">
        <lane id="--2872_0" index="0" speed="6.94" length="241.68" shape="749.69,1747.95 508.01,1748.10"/>
    </edge>
    <edge id="--2874" from="-2662" to="-2660" priority="6" type="highway.tertiary">
        <lane id="--2874_0" index="0" speed="8.33" length="236.62" shape="513.60,1253.23 511.00,1489.83"/>
        <lane id="--2874_1" index="1" speed="8.33" length="236.62" shape="510.30,1253.19 507.70,1489.80"/>
    </edge>
    <edge id="--2876" from="-2668" to="-2660" priority="6" type="highway.tertiary">
        <lane id="--2876_0" index="0" speed="8.33" length="238.30" shape="752.39,1502.70 514.09,1502.85"/>
        <lane id="--2876_1" index="1" speed="8.33" length="238.30" shape="752.39,1499.40 514.09,1499.55"/>
    </edge>
    <edge id="--2878" from="-2754" to="-2662" priority="6" type="highway.tertiary">
        <lane id="--2878_0" index="0" speed="8.33" length="240.83" shape="516.36,1002.76 513.71,1243.58"/>
        <lane id="--2878_1" index="1" speed="8.33" length="240.83" shape="513.06,1002.73 510.41,1243.54"/>
    </edge>
    <edge id="--2880" from="-2670" to="-2662" priority="6" type="highway.tertiary">
        <lane id="--2880_0" index="0" speed="6.94" length="238.38" shape="755.18,1249.84 516.80,1249.99"/>
    </edge>
    <edge id="--2882" from="-2666" to="-2664" priority="6" type="highway.tertiary">
        <lane id="--2882_0" index="0" speed="6.94" length="238.99" shape="756.07,1751.11 753.44,1990.08"/>
    </edge>
    <edge id="--2884" from="-2736" to="-2664" priority="6" type="highway.tertiary">
        <lane id="--2884_0" index="0" speed="6.94" length="242.51" shape="999.03,1996.33 756.53,1996.50"/>
    </edge>
    <edge id="--2886" from="-2668" to="-2666" priority="6" type="highway.tertiary">
        <lane id="--2886_0" index="0" speed="6.94" length="235.69" shape="758.78,1505.85 756.18,1741.53"/>
    </edge>
    <edge id="--2888" from="-2744" to="-2666" priority="6" type="highway.tertiary">
        <lane id="--2888_0" index="0" speed="6.94" length="242.43" shape="1001.70,1747.77 759.27,1747.95"/>
    </edge>
    <edge id="--2890" from="-2670" to="-2668" priority="6" type="highway.tertiary">
        <lane id="--2890_0" index="0" speed="6.94" length="236.70" shape="761.56,1253.00 758.95,1489.68"/>
    </edge>
    <edge id="--2892" from="-2738" to="-2668" priority="6" type="highway.tertiary">
        <lane id="--2892_0" index="0" speed="8.33" length="242.35" shape="1004.40,1502.52 762.05,1502.69"/>
        <lane id="--2892_1" index="1" speed="8.33" length="242.35" shape="1004.40,1499.22 762.04,1499.39"/>
    </edge>
    <edge id="--2894" from="-2752" to="-2670" priority="6" type="highway.tertiary">
        <lane id="--2894_0" index="0" speed="6.94" length="240.90" shape="764.32,1002.53 761.67,1243.42"/>
    </edge>
    <edge id="--2896" from="-2742" to="-2670" priority="6" type="highway.tertiary">
        <lane id="--2896_0" index="0" speed="6.94" length="242.43" shape="1007.18,1249.66 764.75,1249.84"/>
    </edge>
    <edge id="--2898" from="-2672" to="-2674" priority="6" type="highway.tertiary">
        <lane id="--2898_0" index="0" speed="6.94" length="242.24" shape="2026.28,1.65 1784.04,1.81"/>
    </edge>
    <edge id="--2900" from="-2672" to="-2678" priority="6" type="highway.tertiary">
        <lane id="--2900_0" index="0" speed="6.94" length="240.57" shape="2031.18,3.31 2028.54,243.86"/>
    </edge>
    <edge id="--2902" from="-2674" to="-2676" priority="6" type="highway.tertiary">
        <lane id="--2902_0" index="0" speed="6.94" length="241.76" shape="1774.54,1.81 1532.78,1.97"/>
    </edge>
    <edge id="--2904" from="-2674" to="-2680" priority="6" type="highway.tertiary">
        <lane id="--2904_0" index="0" speed="6.94" length="238.99" shape="1780.92,4.97 1778.29,243.94"/>
    </edge>
    <edge id="--2906" from="-2676" to="-2696" priority="6" type="highway.tertiary">
        <lane id="--2906_0" index="0" speed="6.94" length="240.74" shape="1523.28,1.97 1282.54,2.13"/>
    </edge>
    <edge id="--2908" from="-2676" to="-2682" priority="6" type="highway.tertiary">
        <lane id="--2908_0" index="0" speed="6.94" length="238.99" shape="1529.67,5.13 1527.04,244.10"/>
    </edge>
    <edge id="--2910" from="-2678" to="-2684" priority="6" type="highway.tertiary">
        <lane id="--2910_0" index="0" speed="6.94" length="240.08" shape="2028.43,253.36 2025.79,493.42"/>
    </edge>
    <edge id="--2912" from="-2678" to="-2680" priority="6" type="highway.tertiary">
        <lane id="--2912_0" index="0" speed="6.94" length="240.67" shape="2022.05,250.21 1781.38,250.36"/>
    </edge>
    <edge id="--2914" from="-2680" to="-2686" priority="6" type="highway.tertiary">
        <lane id="--2914_0" index="0" speed="6.94" length="240.00" shape="1778.19,253.52 1775.55,493.51"/>
    </edge>
    <edge id="--2916" from="-2680" to="-2682" priority="6" type="highway.tertiary">
        <lane id="--2916_0" index="0" speed="6.94" length="241.68" shape="1771.80,250.37 1530.12,250.52"/>
    </edge>
    <edge id="--2918" from="-2682" to="-2698" priority="6" type="highway.tertiary">
        <lane id="--2918_0" index="0" speed="6.94" length="240.67" shape="1520.55,250.53 1279.88,250.68"/>
    </edge>
    <edge id="--2920" from="-2682" to="-2688" priority="6" type="highway.tertiary">
        <lane id="--2920_0" index="0" speed="6.94" length="236.77" shape="1526.93,253.68 1524.32,490.44"/>
    </edge>
    <edge id="--2922" from="-2684" to="-2686" priority="6" type="highway.tertiary">
        <lane id="--2922_0" index="0" speed="5.56" length="240.67" shape="2019.30,499.77 1778.63,499.92"/>
    </edge>
    <edge id="--2924" from="-2684" to="-2690" priority="6" type="highway.tertiary">
        <lane id="--2924_0" index="0" speed="5.56" length="239.07" shape="2025.69,502.92 2023.05,741.98"/>
    </edge>
    <edge id="--2926" from="-2686" to="-2688" priority="6" type="highway.tertiary">
        <lane id="--2926_0" index="0" speed="6.94" length="238.46" shape="1769.06,499.93 1530.60,500.08"/>
    </edge>
    <edge id="--2928" from="-2686" to="-2692" priority="6" type="highway.tertiary">
        <lane id="--2928_0" index="0" speed="5.56" length="238.99" shape="1775.44,503.08 1772.81,742.06"/>
    </edge>
    <edge id="--2930" from="-2688" to="-2700" priority="6" type="highway.tertiary">
        <lane id="--2930_0" index="0" speed="8.33" length="237.29" shape="1514.46,503.39 1277.17,503.54"/>
        <lane id="--2930_1" index="1" speed="8.33" length="237.29" shape="1514.46,500.09 1277.17,500.24"/>
    </edge>
    <edge id="--2932" from="-2688" to="-2694" priority="6" type="highway.tertiary">
        <lane id="--2932_0" index="0" speed="8.33" length="235.62" shape="1527.45,506.62 1524.85,742.22"/>
        <lane id="--2932_1" index="1" speed="8.33" length="235.62" shape="1524.15,506.58 1521.55,742.18"/>
    </edge>
    <edge id="--2934" from="-2690" to="-2760" priority="6" type="highway.tertiary">
        <lane id="--2934_0" index="0" speed="5.56" length="240.78" shape="2022.95,751.48 2020.30,992.24"/>
    </edge>
    <edge id="--2936" from="-2690" to="-2692" priority="6" type="highway.tertiary">
        <lane id="--2936_0" index="0" speed="5.56" length="240.67" shape="2016.57,748.32 1775.90,748.48"/>
    </edge>
    <edge id="--2938" from="-2692" to="-2762" priority="6" type="highway.tertiary">
        <lane id="--2938_0" index="0" speed="5.56" length="240.70" shape="1772.70,751.64 1770.05,992.32"/>
    </edge>
    <edge id="--2940" from="-2692" to="-2694" priority="6" type="highway.tertiary">
        <lane id="--2940_0" index="0" speed="6.94" length="238.38" shape="1766.32,748.48 1527.94,748.63"/>
    </edge>
    <edge id="--2942" from="-2694" to="-2766" priority="6" type="highway.tertiary">
        <lane id="--2942_0" index="0" speed="8.33" length="240.62" shape="1524.75,751.87 1522.10,992.48"/>
        <lane id="--2942_1" index="1" speed="8.33" length="240.62" shape="1521.45,751.83 1518.80,992.44"/>
    </edge>
    <edge id="--2944" from="-2694" to="-2702" priority="6" type="highway.tertiary">
        <lane id="--2944_0" index="0" speed="6.94" length="237.37" shape="1511.76,748.64 1274.40,748.79"/>
    </edge>
    <edge id="--2946" from="-2696" to="-2750" priority="6" type="highway.tertiary">
        <lane id="--2946_0" index="0" speed="6.94" length="242.62" shape="1273.04,2.13 1030.42,2.27"/>
    </edge>
    <edge id="--2948" from="-2696" to="-2698" priority="6" type="highway.tertiary">
        <lane id="--2948_0" index="0" speed="6.94" length="238.99" shape="1279.42,5.29 1276.79,244.26"/>
    </edge>
    <edge id="--2950" from="-2698" to="-2748" priority="6" type="highway.tertiary">
        <lane id="--2950_0" index="0" speed="6.94" length="242.55" shape="1270.30,250.69 1027.76,250.82"/>
    </edge>
    <edge id="--2952" from="-2698" to="-2700" priority="6" type="highway.tertiary">
        <lane id="--2952_0" index="0" speed="6.94" length="236.70" shape="1276.69,253.84 1274.08,490.52"/>
    </edge>
    <edge id="--2954" from="-2700" to="-2746" priority="6" type="highway.tertiary">
        <lane id="--2954_0" index="0" speed="8.33" length="242.47" shape="1267.52,503.55 1025.05,503.68"/>
        <lane id="--2954_1" index="1" speed="8.33" length="242.47" shape="1267.52,500.25 1025.05,500.38"/>
    </edge>
    <edge id="--2956" from="-2700" to="-2702" priority="6" type="highway.tertiary">
        <lane id="--2956_0" index="0" speed="6.94" length="235.69" shape="1273.90,506.70 1271.31,742.38"/>
    </edge>
    <edge id="--2958" from="-2702" to="-2740" priority="6" type="highway.tertiary">
        <lane id="--2958_0" index="0" speed="6.94" length="242.55" shape="1264.82,748.80 1022.27,748.93"/>
    </edge>
    <edge id="--2960" from="-2702" to="-2764" priority="6" type="highway.tertiary">
        <lane id="--2960_0" index="0" speed="6.94" length="240.70" shape="1271.20,751.95 1268.55,992.64"/>
    </edge>
    <edge id="--2962" from="-2704" to="-2706" priority="6" type="highway.tertiary">
        <lane id="--2962_0" index="0" speed="6.94" length="242.24" shape="2004.40,1995.72 1762.16,1995.87"/>
    </edge>
    <edge id="--2964" from="-2712" to="-2704" priority="6" type="highway.tertiary">
        <lane id="--2964_0" index="0" speed="6.94" length="240.57" shape="2011.95,1750.32 2009.30,1990.88"/>
    </edge>
    <edge id="--2966" from="-2706" to="-2708" priority="6" type="highway.tertiary">
        <lane id="--2966_0" index="0" speed="6.94" length="241.76" shape="1752.66,1995.88 1510.90,1996.03"/>
    </edge>
    <edge id="--2968" from="-2714" to="-2706" priority="6" type="highway.tertiary">
        <lane id="--2968_0" index="0" speed="6.94" length="238.99" shape="1761.70,1750.48 1759.07,1989.46"/>
    </edge>
    <edge id="--2970" from="-2708" to="-2710" priority="6" type="highway.tertiary">
        <lane id="--2970_0" index="0" speed="6.94" length="240.74" shape="1501.40,1996.04 1260.66,1996.19"/>
    </edge>
    <edge id="--2972" from="-2716" to="-2708" priority="6" type="highway.tertiary">
        <lane id="--2972_0" index="0" speed="6.94" length="238.99" shape="1510.45,1750.63 1507.81,1989.61"/>
    </edge>
    <edge id="--2974" from="-2710" to="-2736" priority="6" type="highway.tertiary">
        <lane id="--2974_0" index="0" speed="6.94" length="242.62" shape="1251.15,1996.19 1008.53,1996.32"/>
    </edge>
    <edge id="--2976" from="-2718" to="-2710" priority="6" type="highway.tertiary">
        <lane id="--2976_0" index="0" speed="6.94" length="238.99" shape="1260.20,1750.79 1257.57,1989.77"/>
    </edge>
    <edge id="--2978" from="-2712" to="-2714" priority="6" type="highway.tertiary">
        <lane id="--2978_0" index="0" speed="6.94" length="240.67" shape="2005.56,1747.17 1764.90,1747.32"/>
    </edge>
    <edge id="--2980" from="-2720" to="-2712" priority="6" type="highway.tertiary">
        <lane id="--2980_0" index="0" speed="6.94" length="239.07" shape="2014.69,1501.77 2012.05,1740.82"/>
    </edge>
    <edge id="--2982" from="-2714" to="-2716" priority="6" type="highway.tertiary">
        <lane id="--2982_0" index="0" speed="6.94" length="241.68" shape="1755.32,1747.32 1513.64,1747.48"/>
    </edge>
    <edge id="--2984" from="-2722" to="-2714" priority="6" type="highway.tertiary">
        <lane id="--2984_0" index="0" speed="6.94" length="238.99" shape="1764.44,1501.92 1761.81,1740.90"/>
    </edge>
    <edge id="--2986" from="-2716" to="-2718" priority="6" type="highway.tertiary">
        <lane id="--2986_0" index="0" speed="6.94" length="240.67" shape="1504.06,1747.48 1263.39,1747.63"/>
    </edge>
    <edge id="--2988" from="-2724" to="-2716" priority="6" type="highway.tertiary">
        <lane id="--2988_0" index="0" speed="6.94" length="235.69" shape="1513.15,1505.38 1510.55,1741.06"/>
    </edge>
    <edge id="--2990" from="-2718" to="-2744" priority="6" type="highway.tertiary">
        <lane id="--2990_0" index="0" speed="6.94" length="242.55" shape="1253.82,1747.64 1011.27,1747.77"/>
    </edge>
    <edge id="--2992" from="-2726" to="-2718" priority="6" type="highway.tertiary">
        <lane id="--2992_0" index="0" speed="6.94" length="235.69" shape="1262.90,1505.54 1260.31,1741.22"/>
    </edge>
    <edge id="--2994" from="-2720" to="-2722" priority="6" type="highway.tertiary">
        <lane id="--2994_0" index="0" speed="5.56" length="240.67" shape="2008.30,1498.61 1767.63,1498.76"/>
    </edge>
    <edge id="--2996" from="-2728" to="-2720" priority="6" type="highway.tertiary">
        <lane id="--2996_0" index="0" speed="5.56" length="240.08" shape="2017.44,1252.21 2014.79,1492.27"/>
    </edge>
    <edge id="--2998" from="-2722" to="-2724" priority="6" type="highway.tertiary">
        <lane id="--2998_0" index="0" speed="6.94" length="238.38" shape="1758.06,1498.77 1519.68,1498.92"/>
    </edge>
    <edge id="--3000" from="-2730" to="-2722" priority="6" type="highway.tertiary">
        <lane id="--3000_0" index="0" speed="5.56" length="240.00" shape="1767.19,1252.36 1764.55,1492.35"/>
    </edge>
    <edge id="--3002" from="-2724" to="-2726" priority="6" type="highway.tertiary">
        <lane id="--3002_0" index="0" speed="8.33" length="237.44" shape="1503.62,1502.23 1266.17,1502.38"/>
        <lane id="--3002_1" index="1" speed="8.33" length="237.44" shape="1503.61,1498.93 1266.17,1499.08"/>
    </edge>
    <edge id="--3004" from="-2732" to="-2724" priority="6" type="highway.tertiary">
        <lane id="--3004_0" index="0" speed="8.33" length="236.77" shape="1519.23,1252.60 1516.62,1489.36"/>
        <lane id="--3004_1" index="1" speed="8.33" length="236.77" shape="1515.93,1252.56 1513.32,1489.32"/>
    </edge>
    <edge id="--3006" from="-2726" to="-2738" priority="6" type="highway.tertiary">
        <lane id="--3006_0" index="0" speed="8.33" length="242.47" shape="1256.52,1502.38 1014.05,1502.52"/>
        <lane id="--3006_1" index="1" speed="8.33" length="242.47" shape="1256.52,1499.08 1014.05,1499.22"/>
    </edge>
    <edge id="--3008" from="-2734" to="-2726" priority="6" type="highway.tertiary">
        <lane id="--3008_0" index="0" speed="6.94" length="236.70" shape="1265.69,1252.68 1263.08,1489.36"/>
    </edge>
    <edge id="--3010" from="-2760" to="-2728" priority="6" type="highway.tertiary">
        <lane id="--3010_0" index="0" speed="5.56" length="240.98" shape="2020.19,1001.74 2017.54,1242.71"/>
    </edge>
    <edge id="--3012" from="-2728" to="-2730" priority="6" type="highway.tertiary">
        <lane id="--3012_0" index="0" speed="5.56" length="240.67" shape="2011.05,1249.05 1770.38,1249.20"/>
    </edge>
    <edge id="--3014" from="-2730" to="-2732" priority="6" type="highway.tertiary">
        <lane id="--3014_0" index="0" speed="6.94" length="238.38" shape="1760.81,1249.21 1522.43,1249.36"/>
    </edge>
    <edge id="--3016" from="-2762" to="-2730" priority="6" type="highway.tertiary">
        <lane id="--3016_0" index="0" speed="5.56" length="240.91" shape="1769.95,1001.90 1767.30,1242.79"/>
    </edge>
    <edge id="--3018" from="-2732" to="-2734" priority="6" type="highway.tertiary">
        <lane id="--3018_0" index="0" speed="6.94" length="237.37" shape="1506.25,1249.37 1268.88,1249.52"/>
    </edge>
    <edge id="--3020" from="-2766" to="-2732" priority="6" type="highway.tertiary">
        <lane id="--3020_0" index="0" speed="8.33" length="240.83" shape="1521.99,1002.13 1519.34,1242.94"/>
        <lane id="--3020_1" index="1" speed="8.33" length="240.83" shape="1518.69,1002.09 1516.04,1242.91"/>
    </edge>
    <edge id="--3022" from="-2734" to="-2742" priority="6" type="highway.tertiary">
        <lane id="--3022_0" index="0" speed="6.94" length="242.55" shape="1259.31,1249.53 1016.76,1249.66"/>
    </edge>
    <edge id="--3024" from="-2764" to="-2734" priority="6" type="highway.tertiary">
        <lane id="--3024_0" index="0" speed="6.94" length="240.91" shape="1268.45,1002.21 1265.80,1243.10"/>
    </edge>
    <edge id="--3026" from="-2744" to="-2736" priority="6" type="highway.tertiary">
        <lane id="--3026_0" index="0" speed="6.94" length="238.99" shape="1008.08,1750.93 1005.45,1989.90"/>
    </edge>
    <edge id="--3028" from="-2746" to="-2740" priority="6" type="highway.tertiary">
        <lane id="--3028_0" index="0" speed="6.94" length="235.69" shape="1021.78,506.84 1019.19,742.52"/>
    </edge>
    <edge id="--3030" from="-2738" to="-2744" priority="6" type="highway.tertiary">
        <lane id="--3030_0" index="0" speed="6.94" length="235.69" shape="1010.78,1505.67 1008.19,1741.35"/>
    </edge>
    <edge id="--3032" from="-2748" to="-2746" priority="6" type="highway.tertiary">
        <lane id="--3032_0" index="0" speed="6.94" length="236.70" shape="1024.57,253.98 1021.96,490.66"/>
    </edge>
    <edge id="--3034" from="-2742" to="-2738" priority="6" type="highway.tertiary">
        <lane id="--3034_0" index="0" speed="6.94" length="236.70" shape="1013.57,1252.82 1010.96,1489.50"/>
    </edge>
    <edge id="--3036" from="-2750" to="-2748" priority="6" type="highway.tertiary">
        <lane id="--3036_0" index="0" speed="6.94" length="238.99" shape="1027.30,5.43 1024.67,244.40"/>
    </edge>
    <edge id="--3038" from="-2740" to="-2768" priority="6" type="highway.tertiary">