<?xml version="1.0" encoding="UTF-8"?>

<!-- generated on Fri Oct 25 15:22:08 2013 by SUMO duarouter Version 0.17.1
<?xml version="1.0" encoding="UTF-8"?>

<configuration xmlns:xsi="http://www.w3.org/2001/XMLSchema-instance" xsi:noNamespaceSchemaLocation="http://sumo.sf.net/xsd/duarouterConfiguration.xsd">

    <input>
        <net-file value="../network/grid9x9.net.xml"/>
        <trip-files value="./grid9x9.trip.xml"/>
    </input>

    <output>
        <output-file value="grid9x9.rou.xml"/>
    </output>

</configuration>
-->

<routes xmlns:xsi="http://www.w3.org/2001/XMLSchema-instance" xsi:noNamespaceSchemaLocation="http://sumo.sf.net/xsd/routes_file.xsd">
	<vehicle id="1" depart="1.0">
		<route edges="-140 -152 -162 -168 -252 -242 -244 -208 -196 -192 -184"/>
	</vehicle>
	<vehicle id="2" depart="2.0">
		<route edges="-220 -232 -244 -208 --206 -246"/>
	</vehicle>
	<vehicle id="3" depart="3.0">
		<route edges="-162 -166 -170 -134 -136 -246"/>
	</vehicle>
	<vehicle id="4" depart="4.0">
		<route edges="-220 -232 -244 -208 --206 -246"/>
	</vehicle>
	<vehicle id="5" depart="5.0">
		<route edges="-220 -232 -244 -208 --206 -246"/>
	</vehicle>
	<vehicle id="6" depart="6.0">
		<route edges="-140 -152 -162 -168 -252 -242 -244 -208 -196 -192 -184"/>
	</vehicle>
	<vehicle id="7" depart="7.0">
		<route edges="-220 -232 -244 -208 --206 -246"/>
	</vehicle>
	<vehicle id="8" depart="8.0">
		<route edges="-220 -232 -244 -208 --206 -246"/>
	</vehicle>
	<vehicle id="9" depart="9.0">
		<route edges="--210 --214 -220 --230 -252 --172 -170 -134 --124 --112 -106"/>
	</vehicle>
	<vehicle id="10" depart="10.0">
		<route edges="-162 -166 -170 -134 -136 -246"/>
	</vehicle>
	<vehicle id="11" depart="11.0">
		<route edges="-140 -152 -162 -168 -252 -242 -244 -208 -196 -192 -184"/>
	</vehicle>
	<vehicle id="12" depart="12.0">
		<route edges="-140 -152 -162 -168 -252 -242 -244 -208 -196 -192 -184"/>
	</vehicle>
	<vehicle id="13" depart="13.0">
		<route edges="-220 -232 -244 -208 --206 -246"/>
	</vehicle>
	<vehicle id="14" depart="14.0">
		<route edges="-140 -152 -162 -168 -252 -242 -244 -208 -196 -192 -184"/>
	</vehicle>
	<vehicle id="15" depart="15.0">
		<route edges="-140 -152 -162 -168 -252 -242 -244 -208 -196 -192 -184"/>
	</vehicle>
	<vehicle id="16" depart="16.0">
		<route edges="--210 --214 -220 --230 -252 --172 -170 -134 --124 --112 -106"/>
	</vehicle>
	<vehicle id="17" depart="17.0">
		<route edges="-162 -166 -170 -134 -136 -246"/>
	</vehicle>
	<vehicle id="18" depart="18.0">
		<route edges="-220 -232 -244 -208 --206 -246"/>
	</vehicle>
	<vehicle id="19" depart="19.0">
		<route edges="-140 -152 -162 -168 -252 -242 -244 -208 -196 -192 -184"/>
	</vehicle>
	<vehicle id="20" depart="20.0">
		<route edges="--210 --214 -220 --230 -252 --172 -170 -134 --124 --112 -106"/>
	</vehicle>
	<vehicle id="21" depart="21.0">
		<route edges="-220 -232 -244 -208 --206 -246"/>
	</vehicle>
	<vehicle id="22" depart="22.0">
		<route edges="-140 -152 -162 -168 -252 -242 -244 -208 -196 -192 -184"/>
	</vehicle>
	<vehicle id="23" depart="23.0">
		<route edges="-162 -166 -170 -134 -136 -246"/>
	</vehicle>
	<vehicle id="24" depart="24.0">
		<route edges="--210 --214 -220 --230 -252 --172 -170 -134 --124 --112 -106"/>
	</vehicle>
	<vehicle id="25" depart="25.0">
		<route edges="-220 -232 -244 -208 --206 -246"/>
	</vehicle>
	<vehicle id="26" depart="26.0">
		<route edges="-220 -232 -244 -208 --206 -246"/>
	</vehicle>
	<vehicle id="27" depart="27.0">
		<route edges="--210 --214 -220 --230 -252 --172 -170 -134 --124 --112 -106"/>
	</vehicle>
	<vehicle id="28" depart="28.0">
		<route edges="-140 -152 -162 -168 -252 -242 -244 -208 -196 -192 -184"/>
	</vehicle>
	<vehicle id="29" depart="29.0">
		<route edges="-140 -152 -162 -168 -252 -242 -244 -208 -196 -192 -184"/>
	</vehicle>
	<vehicle id="30" depart="30.0">
		<route edges="--210 --214 -220 --230 -252 --172 -170 -134 --124 --112 -106"/>
	</vehicle>
	<vehicle id="31" depart="31.0">
		<route edges="--210 --214 -220 --230 -252 --172 -170 -134 --124 --112 -106"/>
	</vehicle>
	<vehicle id="32" depart="32.0">
		<route edges="-162 -166 -170 -134 -136 -246"/>
	</vehicle>
	<vehicle id="33" depart="33.0">
		<route edges="-162 -166 -170 -134 -136 -246"/>
	</vehicle>
	<vehicle id="34" depart="34.0">
		<route edges="-162 -166 -170 -134 -136 -246"/>
	</vehicle>
	<vehicle id="35" depart="35.0">
		<route edges="-140 -152 -162 -168 -252 -242 -244 -208 -196 -192 -184"/>
	</vehicle>
	<vehicle id="36" depart="36.0">
		<route edges="-162 -166 -170 -134 -136 -246"/>
	</vehicle>
	<vehicle id="37" depart="37.0">
		<route edges="--210 --214 -220 --230 -252 --172 -170 -134 --124 --112 -106"/>
	</vehicle>
	<vehicle id="38" depart="38.0">
		<route edges="-220 -232 -244 -208 --206 -246"/>
	</vehicle>
	<vehicle id="39" depart="39.0">
		<route edges="-140 -152 -162 -168 -252 -242 -244 -208 -196 -192 -184"/>
	</vehicle>
	<vehicle id="40" depart="40.0">
		<route edges="-220 -232 -244 -208 --206 -246"/>
	</vehicle>
	<vehicle id="41" depart="41.0">
		<route edges="--210 --214 -220 --230 -252 --172 -170 -134 --124 --112 -106"/>
	</vehicle>
	<vehicle id="42" depart="42.0">
		<route edges="--210 --214 -220 --230 -252 --172 -170 -134 --124 --112 -106"/>
	</vehicle>
	<vehicle id="43" depart="43.0">
		<route edges="-162 -166 -170 -134 -136 -246"/>
	</vehicle>
	<vehicle id="44" depart="44.0">
		<route edges="-220 -232 -244 -208 --206 -246"/>
	</vehicle>
	<vehicle id="45" depart="45.0">
		<route edges="-220 -232 -244 -208 --206 -246"/>
	</vehicle>
	<vehicle id="46" depart="46.0">
		<route edges="-140 -152 -162 -168 -252 -242 -244 -208 -196 -192 -184"/>
	</vehicle>
	<vehicle id="47" depart="47.0">
		<route edges="--210 --214 -220 --230 -252 --172 -170 -134 --124 --112 -106"/>
	</vehicle>
	<vehicle id="48" depart="48.0">
		<route edges="-162 -166 -170 -134 -136 -246"/>
	</vehicle>
	<vehicle id="49" depart="49.0">
		<route edges="-220 -232 -244 -208 --206 -246"/>
	</vehicle>
	<vehicle id="50" depart="50.0">
		<route edges="-140 -152 -162 -168 -252 -242 -244 -208 -196 -192 -184"/>
	</vehicle>
	<vehicle id="51" depart="51.0">
		<route edges="--210 --214 -220 --230 -252 --172 -170 -134 --124 --112 -106"/>
	</vehicle>
	<vehicle id="52" depart="52.0">
		<route edges="--210 --214 -220 --230 -252 --172 -170 -134 --124 --112 -106"/>
	</vehicle>
	<vehicle id="53" depart="53.0">
		<route edges="-140 -152 -162 -168 -252 -242 -244 -208 -196 -192 -184"/>
	</vehicle>
	<vehicle id="54" depart="54.0">
		<route edges="-140 -152 -162 -168 -252 -242 -244 -208 -196 -192 -184"/>
	</vehicle>
	<vehicle id="55" depart="55.0">
		<route edges="--210 --214 -220 --230 -252 --172 -170 -134 --124 --112 -106"/>
	</vehicle>
	<vehicle id="56" depart="56.0">
		<route edges="-140 -152 -162 -168 -252 -242 -244 -208 -196 -192 -184"/>
	</vehicle>
	<vehicle id="57" depart="57.0">
		<route edges="-162 -166 -170 -134 -136 -246"/>
	</vehicle>
	<vehicle id="58" depart="58.0">
		<route edges="-220 -232 -244 -208 --206 -246"/>
	</vehicle>
	<vehicle id="59" depart="59.0">
		<route edges="--210 --214 -220 --230 -252 --172 -170 -134 --124 --112 -106"/>
	</vehicle>
	<vehicle id="60" depart="60.0">
		<route edges="--210 --214 -220 --230 -252 --172 -170 -134 --124 --112 -106"/>
	</vehicle>
	<vehicle id="61" depart="61.0">
		<route edges="-140 -152 -162 -168 -252 -242 -244 -208 -196 -192 -184"/>
	</vehicle>
	<vehicle id="62" depart="62.0">
		<route edges="--210 --214 -220 --230 -252 --172 -170 -134 --124 --112 -106"/>
	</vehicle>
	<vehicle id="63" depart="63.0">
		<route edges="-220 -232 -244 -208 --206 -246"/>
	</vehicle>
	<vehicle id="64" depart="64.0">
		<route edges="-220 -232 -244 -208 --206 -246"/>
	</vehicle>
	<vehicle id="65" depart="65.0">
		<route edges="--210 --214 -220 --230 -252 --172 -170 -134 --124 --112 -106"/>
	</vehicle>
	<vehicle id="66" depart="66.0">
		<route edges="-220 -232 -244 -208 --206 -246"/>
	</vehicle>
	<vehicle id="67" depart="67.0">
		<route edges="-140 -152 -162 -168 -252 -242 -244 -208 -196 -192 -184"/>
	</vehicle>
	<vehicle id="68" depart="68.0">
		<route edges="-162 -166 -170 -134 -136 -246"/>
	</vehicle>
	<vehicle id="69" depart="69.0">
		<route edges="--210 --214 -220 --230 -252 --172 -170 -134 --124 --112 -106"/>
	</vehicle>
	<vehicle id="70" depart="70.0">
		<route edges="--210 --214 -220 --230 -252 --172 -170 -134 --124 --112 -106"/>
	</vehicle>
	<vehicle id="71" depart="71.0">
		<route edges="-220 -232 -244 -208 --206 -246"/>
	</vehicle>
	<vehicle id="72" depart="72.0">
		<route edges="-140 -152 -162 -168 -252 -242 -244 -208 -196 -192 -184"/>
	</vehicle>
	<vehicle id="73" depart="73.0">
		<route edges="-140 -152 -162 -168 -252 -242 -244 -208 -196 -192 -184"/>
	</vehicle>
	<vehicle id="74" depart="74.0">
		<route edges="--210 --214 -220 --230 -252 --172 -170 -134 --124 --112 -106"/>
	</vehicle>
	<vehicle id="75" depart="75.0">
		<route edges="-220 -232 -244 -208 --206 -246"/>
	</vehicle>
	<vehicle id="76" depart="76.0">
		<route edges="-220 -232 -244 -208 --206 -246"/>
	</vehicle>
	<vehicle id="77" depart="77.0">
		<route edges="-220 -232 -244 -208 --206 -246"/>
	</vehicle>
	<vehicle id="78" depart="78.0">
		<route edges="-140 -152 -162 -168 -252 -242 -244 -208 -196 -192 -184"/>
	</vehicle>
	<vehicle id="79" depart="79.0">
		<route edges="-140 -152 -162 -168 -252 -242 -244 -208 -196 -192 -184"/>
	</vehicle>
	<vehicle id="80" depart="80.0">
		<route edges="-162 -166 -170 -134 -136 -246"/>
	</vehicle>
	<vehicle id="81" depart="81.0">
		<route edges="-162 -166 -170 -134 -136 -246"/>
	</vehicle>
	<vehicle id="82" depart="82.0">
		<route edges="--210 --214 -220 --230 -252 --172 -170 -134 --124 --112 -106"/>
	</vehicle>
	<vehicle id="83" depart="83.0">
		<route edges="--210 --214 -220 --230 -252 --172 -170 -134 --124 --112 -106"/>
	</vehicle>
	<vehicle id="84" depart="84.0">
		<route edges="-140 -152 -162 -168 -252 -242 -244 -208 -196 -192 -184"/>
	</vehicle>
	<vehicle id="85" depart="85.0">
		<route edges="-220 -232 -244 -208 --206 -246"/>
	</vehicle>
	<vehicle id="86" depart="86.0">
		<route edges="--210 --214 -220 --230 -252 --172 -170 -134 --124 --112 -106"/>
	</vehicle>
	<vehicle id="87" depart="87.0">
		<route edges="-220 -232 -244 -208 --206 -246"/>
	</vehicle>
	<vehicle id="88" depart="88.0">
		<route edges="-220 -232 -244 -208 --206 -246"/>
	</vehicle>
	<vehicle id="89" depart="89.0">
		<route edges="--210 --214 -220 --230 -252 --172 -170 -134 --124 --112 -106"/>
	</vehicle>
	<vehicle id="90" depart="90.0">
		<route edges="-140 -152 -162 -168 -252 -242 -244 -208 -196 -192 -184"/>
	</vehicle>
	<vehicle id="91" depart="91.0">
		<route edges="-220 -232 -244 -208 --206 -246"/>
	</vehicle>
	<vehicle id="92" depart="92.0">
		<route edges="-162 -166 -170 -134 -136 -246"/>
	</vehicle>
	<vehicle id="93" depart="93.0">
		<route edges="-162 -166 -170 -134 -136 -246"/>
	</vehicle>
	<vehicle id="94" depart="94.0">
		<route edges="-220 -232 -244 -208 --206 -246"/>
	</vehicle>
	<vehicle id="95" depart="95.0">
		<route edges="--210 --214 -220 --230 -252 --172 -170 -134 --124 --112 -106"/>
	</vehicle>
	<vehicle id="96" depart="96.0">
		<route edges="-162 -166 -170 -134 -136 -246"/>
	</vehicle>
	<vehicle id="97" depart="97.0">
		<route edges="-140 -152 -162 -168 -252 -242 -244 -208 -196 -192 -184"/>
	</vehicle>
	<vehicle id="98" depart="98.0">
		<route edges="--210 --214 -220 --230 -252 --172 -170 -134 --124 --112 -106"/>
	</vehicle>
	<vehicle id="99" depart="99.0">
		<route edges="-140 -152 -162 -168 -252 -242 -244 -208 -196 -192 -184"/>
	</vehicle>
	<vehicle id="100" depart="100.0">
		<route edges="-140 -152 -162 -168 -252 -242 -244 -208 -196 -192 -184"/>
	</vehicle>
	<vehicle id="101" depart="101.0">
		<route edges="--210 --214 -220 --230 -252 --172 -170 -134 --124 --112 -106"/>
	</vehicle>
	<vehicle id="102" depart="102.0">
		<route edges="-140 -152 -162 -168 -252 -242 -244 -208 -196 -192 -184"/>
	</vehicle>
	<vehicle id="103" depart="103.0">
		<route edges="-162 -166 -170 -134 -136 -246"/>
	</vehicle>
	<vehicle id="104" depart="104.0">
		<route edges="-220 -232 -244 -208 --206 -246"/>
	</vehicle>
	<vehicle id="105" depart="105.0">
		<route edges="-220 -232 -244 -208 --206 -246"/>
	</vehicle>
	<vehicle id="106" depart="106.0">
		<route edges="-162 -166 -170 -134 -136 -246"/>
	</vehicle>
	<vehicle id="107" depart="107.0">
		<route edges="-140 -152 -162 -168 -252 -242 -244 -208 -196 -192 -184"/>
	</vehicle>
	<vehicle id="108" depart="108.0">
		<route edges="--210 --214 -220 --230 -252 --172 -170 -134 --124 --112 -106"/>
	</vehicle>
	<vehicle id="109" depart="109.0">
		<route edges="--210 --214 -220 --230 -252 --172 -170 -134 --124 --112 -106"/>
	</vehicle>
	<vehicle id="110" depart="110.0">
		<route edges="-162 -166 -170 -134 -136 -246"/>
	</vehicle>
	<vehicle id="111" depart="111.0">
		<route edges="-140 -152 -162 -168 -252 -242 -244 -208 -196 -192 -184"/>
	</vehicle>
	<vehicle id="112" depart="112.0">
		<route edges="-140 -152 -162 -168 -252 -242 -244 -208 -196 -192 -184"/>
	</vehicle>
	<vehicle id="113" depart="113.0">
		<route edges="-162 -166 -170 -134 -136 -246"/>
	</vehicle>
	<vehicle id="114" depart="114.0">
		<route edges="--210 --214 -220 --230 -252 --172 -170 -134 --124 --112 -106"/>
	</vehicle>
	<vehicle id="115" depart="115.0">
		<route edges="-140 -152 -162 -168 -252 -242 -244 -208 -196 -192 -184"/>
	</vehicle>
	<vehicle id="116" depart="116.0">
		<route edges="--210 --214 -220 --230 -252 --172 -170 -134 --124 --112 -106"/>
	</vehicle>
	<vehicle id="117" depart="117.0">
		<route edges="-162 -166 -170 -134 -136 -246"/>
	</vehicle>
	<vehicle id="118" depart="118.0">
		<route edges="--210 --214 -220 --230 -252 --172 -170 -134 --124 --112 -106"/>
	</vehicle>
	<vehicle id="119" depart="119.0">
		<route edges="-162 -166 -170 -134 -136 -246"/>
	</vehicle>
	<vehicle id="120" depart="120.0">
		<route edges="-140 -152 -162 -168 -252 -242 -244 -208 -196 -192 -184"/>
	</vehicle>
	<vehicle id="121" depart="121.0">
		<route edges="-220 -232 -244 -208 --206 -246"/>
	</vehicle>
	<vehicle id="122" depart="122.0">
		<route edges="--210 --214 -220 --230 -252 --172 -170 -134 --124 --112 -106"/>
	</vehicle>
	<vehicle id="123" depart="123.0">
		<route edges="-140 -152 -162 -168 -252 -242 -244 -208 -196 -192 -184"/>
	</vehicle>
	<vehicle id="124" depart="124.0">
		<route edges="-140 -152 -162 -168 -252 -242 -244 -208 -196 -192 -184"/>
	</vehicle>
	<vehicle id="125" depart="125.0">
		<route edges="--210 --214 -220 --230 -252 --172 -170 -134 --124 --112 -106"/>
	</vehicle>
	<vehicle id="126" depart="126.0">
		<route edges="-162 -166 -170 -134 -136 -246"/>
	</vehicle>
	<vehicle id="127" depart="127.0">
		<route edges="--210 --214 -220 --230 -252 --172 -170 -134 --124 --112 -106"/>
	</vehicle>
	<vehicle id="128" depart="128.0">
		<route edges="--210 --214 -220 --230 -252 --172 -170 -134 --124 --112 -106"/>
	</vehicle>
	<vehicle id="129" depart="129.0">
		<route edges="-162 -166 -170 -134 -136 -246"/>
	</vehicle>
	<vehicle id="130" depart="130.0">
		<route edges="-220 -232 -244 -208 --206 -246"/>
	</vehicle>
	<vehicle id="131" depart="131.0">
		<route edges="-140 -152 -162 -168 -252 -242 -244 -208 -196 -192 -184"/>
	</vehicle>
	<vehicle id="132" depart="132.0">
		<route edges="-140 -152 -162 -168 -252 -242 -244 -208 -196 -192 -184"/>
	</vehicle>
	<vehicle id="133" depart="133.0">
		<route edges="-140 -152 -162 -168 -252 -242 -244 -208 -196 -192 -184"/>
	</vehicle>
	<vehicle id="134" depart="134.0">
		<route edges="-140 -152 -162 -168 -252 -242 -244 -208 -196 -192 -184"/>
	</vehicle>
	<vehicle id="135" depart="135.0">
		<route edges="--210 --214 -220 --230 -252 --172 -170 -134 --124 --112 -106"/>
	</vehicle>
	<vehicle id="136" depart="136.0">
		<route edges="-140 -152 -162 -168 -252 -242 -244 -208 -196 -192 -184"/>
	</vehicle>
	<vehicle id="137" depart="137.0">
		<route edges="-162 -166 -170 -134 -136 -246"/>
	</vehicle>
	<vehicle id="138" depart="138.0">
		<route edges="-162 -166 -170 -134 -136 -246"/>
	</vehicle>
	<vehicle id="139" depart="139.0">
		<route edges="-220 -232 -244 -208 --206 -246"/>
	</vehicle>
	<vehicle id="140" depart="140.0">
		<route edges="-140 -152 -162 -168 -252 -242 -244 -208 -196 -192 -184"/>
	</vehicle>
	<vehicle id="141" depart="141.0">
		<route edges="-220 -232 -244 -208 --206 -246"/>
	</vehicle>
	<vehicle id="142" depart="142.0">
		<route edges="-140 -152 -162 -168 -252 -242 -244 -208 -196 -192 -184"/>
	</vehicle>
	<vehicle id="143" depart="143.0">
		<route edges="--210 --214 -220 --230 -252 --172 -170 -134 --124 --112 -106"/>
	</vehicle>
	<vehicle id="144" depart="144.0">
		<route edges="--210 --214 -220 --230 -252 --172 -170 -134 --124 --112 -106"/>
	</vehicle>
	<vehicle id="145" depart="145.0">
		<route edges="-162 -166 -170 -134 -136 -246"/>
	</vehicle>
	<vehicle id="146" depart="146.0">
		<route edges="-140 -152 -162 -168 -252 -242 -244 -208 -196 -192 -184"/>
	</vehicle>
	<vehicle id="147" depart="147.0">
		<route edges="-220 -232 -244 -208 --206 -246"/>
	</vehicle>
	<vehicle id="148" depart="148.0">
		<route edges="-220 -232 -244 -208 --206 -246"/>
	</vehicle>
	<vehicle id="149" depart="149.0">
		<route edges="-140 -152 -162 -168 -252 -242 -244 -208 -196 -192 -184"/>
	</vehicle>
	<vehicle id="150" depart="150.0">
		<route edges="-140 -152 -162 -168 -252 -242 -244 -208 -196 -192 -184"/>
	</vehicle>
	<vehicle id="151" depart="151.0">
		<route edges="-220 -232 -244 -208 --206 -246"/>
	</vehicle>
	<vehicle id="152" depart="152.0">
		<route edges="-140 -152 -162 -168 -252 -242 -244 -208 -196 -192 -184"/>
	</vehicle>
	<vehicle id="153" depart="153.0">
		<route edges="-140 -152 -162 -168 -252 -242 -244 -208 -196 -192 -184"/>
	</vehicle>
	<vehicle id="154" depart="154.0">
		<route edges="-162 -166 -170 -134 -136 -246"/>
	</vehicle>
	<vehicle id="155" depart="155.0">
		<route edges="-140 -152 -162 -168 -252 -242 -244 -208 -196 -192 -184"/>
	</vehicle>
	<vehicle id="156" depart="156.0">
		<route edges="-220 -232 -244 -208 --206 -246"/>
	</vehicle>
	<vehicle id="157" depart="157.0">
		<route edges="-140 -152 -162 -168 -252 -242 -244 -208 -196 -192 -184"/>
	</vehicle>
	<vehicle id="158" depart="158.0">
		<route edges="-140 -152 -162 -168 -252 -242 -244 -208 -196 -192 -184"/>
	</vehicle>
	<vehicle id="159" depart="159.0">
		<route edges="-220 -232 -244 -208 --206 -246"/>
	</vehicle>
	<vehicle id="160" depart="160.0">
		<route edges="--210 --214 -220 --230 -252 --172 -170 -134 --124 --112 -106"/>
	</vehicle>
	<vehicle id="161" depart="161.0">
		<route edges="-140 -152 -162 -168 -252 -242 -244 -208 -196 -192 -184"/>
	</vehicle>
	<vehicle id="162" depart="162.0">
		<route edges="--210 --214 -220 --230 -252 --172 -170 -134 --124 --112 -106"/>
	</vehicle>
	<vehicle id="163" depart="163.0">
		<route edges="-140 -152 -162 -168 -252 -242 -244 -208 -196 -192 -184"/>
	</vehicle>
	<vehicle id="164" depart="164.0">
		<route edges="-162 -166 -170 -134 -136 -246"/>
	</vehicle>
	<vehicle id="165" depart="165.0">
		<route edges="-162 -166 -170 -134 -136 -246"/>
	</vehicle>
	<vehicle id="166" depart="166.0">
		<route edges="--210 --214 -220 --230 -252 --172 -170 -134 --124 --112 -106"/>
	</vehicle>
	<vehicle id="167" depart="167.0">
		<route edges="-220 -232 -244 -208 --206 -246"/>
	</vehicle>
	<vehicle id="168" depart="168.0">
		<route edges="-220 -232 -244 -208 --206 -246"/>
	</vehicle>
	<vehicle id="169" depart="169.0">
		<route edges="-220 -232 -244 -208 --206 -246"/>
	</vehicle>
	<vehicle id="170" depart="170.0">
		<route edges="-220 -232 -244 -208 --206 -246"/>
	</vehicle>
	<vehicle id="171" depart="171.0">
		<route edges="-162 -166 -170 -134 -136 -246"/>
	</vehicle>
	<vehicle id="172" depart="172.0">
		<route edges="-162 -166 -170 -134 -136 -246"/>
	</vehicle>
	<vehicle id="173" depart="173.0">
		<route edges="-140 -152 -162 -168 -252 -242 -244 -208 -196 -192 -184"/>
	</vehicle>
	<vehicle id="174" depart="174.0">
		<route edges="--210 --214 -220 --230 -252 --172 -170 -134 --124 --112 -106"/>
	</vehicle>
	<vehicle id="175" depart="175.0">
		<route edges="-162 -166 -170 -134 -136 -246"/>
	</vehicle>
	<vehicle id="176" depart="176.0">
		<route edges="-220 -232 -244 -208 --206 -246"/>
	</vehicle>
	<vehicle id="177" depart="177.0">
		<route edges="-162 -166 -170 -134 -136 -246"/>
	</vehicle>
	<vehicle id="178" depart="178.0">
		<route edges="--210 --214 -220 --230 -252 --172 -170 -134 --124 --112 -106"/>
	</vehicle>
	<vehicle id="179" depart="179.0">
		<route edges="--210 --214 -220 --230 -252 --172 -170 -134 --124 --112 -106"/>
	</vehicle>
	<vehicle id="180" depart="180.0">
		<route edges="-220 -232 -244 -208 --206 -246"/>
	</vehicle>
	<vehicle id="181" depart="181.0">
		<route edges="-140 -152 -162 -168 -252 -242 -244 -208 -196 -192 -184"/>
	</vehicle>
	<vehicle id="182" depart="182.0">
		<route edges="-162 -166 -170 -134 -136 -246"/>
	</vehicle>
	<vehicle id="183" depart="183.0">
		<route edges="-140 -152 -162 -168 -252 -242 -244 -208 -196 -192 -184"/>
	</vehicle>
	<vehicle id="184" depart="184.0">
		<route edges="--210 --214 -220 --230 -252 --172 -170 -134 --124 --112 -106"/>
	</vehicle>
	<vehicle id="185" depart="185.0">
		<route edges="-220 -232 -244 -208 --206 -246"/>
	</vehicle>
	<vehicle id="186" depart="186.0">
		<route edges="-220 -232 -244 -208 --206 -246"/>
	</vehicle>
	<vehicle id="187" depart="187.0">
		<route edges="-140 -152 -162 -168 -252 -242 -244 -208 -196 -192 -184"/>
	</vehicle>
	<vehicle id="188" depart="188.0">
		<route edges="-220 -232 -244 -208 --206 -246"/>
	</vehicle>
	<vehicle id="189" depart="189.0">
		<route edges="-140 -152 -162 -168 -252 -242 -244 -208 -196 -192 -184"/>
	</vehicle>
	<vehicle id="190" depart="190.0">
		<route edges="-220 -232 -244 -208 --206 -246"/>
	</vehicle>
	<vehicle id="191" depart="191.0">
		<route edges="-162 -166 -170 -134 -136 -246"/>
	</vehicle>
	<vehicle id="192" depart="192.0">
		<route edges="-140 -152 -162 -168 -252 -242 -244 -208 -196 -192 -184"/>
	</vehicle>
	<vehicle id="193" depart="193.0">
		<route edges="-140 -152 -162 -168 -252 -242 -244 -208 -196 -192 -184"/>
	</vehicle>
	<vehicle id="194" depart="194.0">
		<route edges="-220 -232 -244 -208 --206 -246"/>
	</vehicle>
	<vehicle id="195" depart="195.0">
		<route edges="-140 -152 -162 -168 -252 -242 -244 -208 -196 -192 -184"/>
	</vehicle>
	<vehicle id="196" depart="196.0">
		<route edges="--210 --214 -220 --230 -252 --172 -170 -134 --124 --112 -106"/>
	</vehicle>
	<vehicle id="197" depart="197.0">
		<route edges="-140 -152 -162 -168 -252 -242 -244 -208 -196 -192 -184"/>
	</vehicle>
	<vehicle id="198" depart="198.0">
		<route edges="--210 --214 -220 --230 -252 --172 -170 -134 --124 --112 -106"/>
	</vehicle>
	<vehicle id="199" depart="199.0">
		<route edges="-162 -166 -170 -134 -136 -246"/>
	</vehicle>
	<vehicle id="200" depart="200.0">
		<route edges="-140 -152 -162 -168 -252 -242 -244 -208 -196 -192 -184"/>
	</vehicle>
	<vehicle id="201" depart="201.0">
		<route edges="--210 --214 -220 --230 -252 --172 -170 -134 --124 --112 -106"/>
	</vehicle>
	<vehicle id="202" depart="202.0">
		<route edges="-162 -166 -170 -134 -136 -246"/>
	</vehicle>
	<vehicle id="203" depart="203.0">
		<route edges="--210 --214 -220 --230 -252 --172 -170 -134 --124 --112 -106"/>
	</vehicle>
	<vehicle id="204" depart="204.0">
		<route edges="-162 -166 -170 -134 -136 -246"/>
	</vehicle>
	<vehicle id="205" depart="205.0">
		<route edges="-220 -232 -244 -208 --206 -246"/>
	</vehicle>
	<vehicle id="206" depart="206.0">
		<route edges="-140 -152 -162 -168 -252 -242 -244 -208 -196 -192 -184"/>
	</vehicle>
	<vehicle id="207" depart="207.0">
		<route edges="-220 -232 -244 -208 --206 -246"/>
	</vehicle>
	<vehicle id="208" depart="208.0">
		<route edges="-140 -152 -162 -168 -252 -242 -244 -208 -196 -192 -184"/>
	</vehicle>
	<vehicle id="209" depart="209.0">
		<route edges="-140 -152 -162 -168 -252 -242 -244 -208 -196 -192 -184"/>
	</vehicle>
	<vehicle id="210" depart="210.0">
		<route edges="-140 -152 -162 -168 -252 -242 -244 -208 -196 -192 -184"/>
	</vehicle>
	<vehicle id="211" depart="211.0">
		<route edges="--210 --214 -220 --230 -252 --172 -170 -134 --124 --112 -106"/>
	</vehicle>
	<vehicle id="212" depart="212.0">
		<route edges="--210 --214 -220 --230 -252 --172 -170 -134 --124 --112 -106"/>
	</vehicle>
	<vehicle id="213" depart="213.0">
		<route edges="-162 -166 -170 -134 -136 -246"/>
	</vehicle>
	<vehicle id="214" depart="214.0">
		<route edges="-220 -232 -244 -208 --206 -246"/>
	</vehicle>
	<vehicle id="215" depart="215.0">
		<route edges="-140 -152 -162 -168 -252 -242 -244 -208 -196 -192 -184"/>
	</vehicle>
	<vehicle id="216" depart="216.0">
		<route edges="--210 --214 -220 --230 -252 --172 -170 -134 --124 --112 -106"/>
	</vehicle>
	<vehicle id="217" depart="217.0">
		<route edges="--210 --214 -220 --230 -252 --172 -170 -134 --124 --112 -106"/>
	</vehicle>
	<vehicle id="218" depart="218.0">
		<route edges="-220 -232 -244 -208 --206 -246"/>
	</vehicle>
	<vehicle id="219" depart="219.0">
		<route edges="-140 -152 -162 -168 -252 -242 -244 -208 -196 -192 -184"/>
	</vehicle>
	<vehicle id="220" depart="220.0">
		<route edges="-140 -152 -162 -168 -252 -242 -244 -208 -196 -192 -184"/>
	</vehicle>
	<vehicle id="221" depart="221.0">
		<route edges="-220 -232 -244 -208 --206 -246"/>
	</vehicle>
	<vehicle id="222" depart="222.0">
		<route edges="-140 -152 -162 -168 -252 -242 -244 -208 -196 -192 -184"/>
	</vehicle>
	<vehicle id="223" depart="223.0">
		<route edges="-220 -232 -244 -208 --206 -246"/>
	</vehicle>
	<vehicle id="224" depart="224.0">
		<route edges="-162 -166 -170 -134 -136 -246"/>
	</vehicle>
	<vehicle id="225" depart="225.0">
		<route edges="-162 -166 -170 -134 -136 -246"/>
	</vehicle>
	<vehicle id="226" depart="226.0">
		<route edges="-162 -166 -170 -134 -136 -246"/>
	</vehicle>
	<vehicle id="227" depart="227.0">
		<route edges="-220 -232 -244 -208 --206 -246"/>
	</vehicle>
	<vehicle id="228" depart="228.0">
		<route edges="-162 -166 -170 -134 -136 -246"/>
	</vehicle>
	<vehicle id="229" depart="229.0">
		<route edges="--210 --214 -220 --230 -252 --172 -170 -134 --124 --112 -106"/>
	</vehicle>
	<vehicle id="230" depart="230.0">
		<route edges="-140 -152 -162 -168 -252 -242 -244 -208 -196 -192 -184"/>
	</vehicle>
	<vehicle id="231" depart="231.0">
		<route edges="-220 -232 -244 -208 --206 -246"/>
	</vehicle>
	<vehicle id="232" depart="232.0">
		<route edges="-162 -166 -170 -134 -136 -246"/>
	</vehicle>
	<vehicle id="233" depart="233.0">
		<route edges="-220 -232 -244 -208 --206 -246"/>
	</vehicle>
	<vehicle id="234" depart="234.0">
		<route edges="--210 --214 -220 --230 -252 --172 -170 -134 --124 --112 -106"/>
	</vehicle>
	<vehicle id="235" depart="235.0">
		<route edges="-220 -232 -244 -208 --206 -246"/>
	</vehicle>
	<vehicle id="236" depart="236.0">
		<route edges="-140 -152 -162 -168 -252 -242 -244 -208 -196 -192 -184"/>
	</vehicle>
	<vehicle id="237" depart="237.0">
		<route edges="--210 --214 -220 --230 -252 --172 -170 -134 --124 --112 -106"/>
	</vehicle>
	<vehicle id="238" depart="238.0">
		<route edges="-140 -152 -162 -168 -252 -242 -244 -208 -196 -192 -184"/>
	</vehicle>
	<vehicle id="239" depart="239.0">
		<route edges="--210 --214 -220 --230 -252 --172 -170 -134 --124 --112 -106"/>
	</vehicle>
	<vehicle id="240" depart="240.0">
		<route edges="--210 --214 -220 --230 -252 --172 -170 -134 --124 --112 -106"/>
	</vehicle>
	<vehicle id="241" depart="241.0">
		<route edges="-162 -166 -170 -134 -136 -246"/>
	</vehicle>
	<vehicle id="242" depart="242.0">
		<route edges="-162 -166 -170 -134 -136 -246"/>
	</vehicle>
	<vehicle id="243" depart="243.0">
		<route edges="-140 -152 -162 -168 -252 -242 -244 -208 -196 -192 -184"/>
	</vehicle>
	<vehicle id="244" depart="244.0">
		<route edges="--210 --214 -220 --230 -252 --172 -170 -134 --124 --112 -106"/>
	</vehicle>
	<vehicle id="245" depart="245.0">
		<route edges="--210 --214 -220 --230 -252 --172 -170 -134 --124 --112 -106"/>
	</vehicle>
	<vehicle id="246" depart="246.0">
		<route edges="-162 -166 -170 -134 -136 -246"/>
	</vehicle>
	<vehicle id="247" depart="247.0">
		<route edges="-140 -152 -162 -168 -252 -242 -244 -208 -196 -192 -184"/>
	</vehicle>
	<vehicle id="248" depart="248.0">
		<route edges="-140 -152 -162 -168 -252 -242 -244 -208 -196 -192 -184"/>
	</vehicle>
	<vehicle id="249" depart="249.0">
		<route edges="-140 -152 -162 -168 -252 -242 -244 -208 -196 -192 -184"/>
	</vehicle>
	<vehicle id="250" depart="250.0">
		<route edges="-162 -166 -170 -134 -136 -246"/>
	</vehicle>
	<vehicle id="251" depart="251.0">
		<route edges="--210 --214 -220 --230 -252 --172 -170 -134 --124 --112 -106"/>
	</vehicle>
	<vehicle id="252" depart="252.0">
		<route edges="-162 -166 -170 -134 -136 -246"/>
	</vehicle>
	<vehicle id="253" depart="253.0">
		<route edges="-220 -232 -244 -208 --206 -246"/>
	</vehicle>
	<vehicle id="254" depart="254.0">
		<route edges="-220 -232 -244 -208 --206 -246"/>
	</vehicle>
	<vehicle id="255" depart="255.0">
		<route edges="-220 -232 -244 -208 --206 -246"/>
	</vehicle>
	<vehicle id="256" depart="256.0">
		<route edges="-140 -152 -162 -168 -252 -242 -244 -208 -196 -192 -184"/>
	</vehicle>
	<vehicle id="257" depart="257.0">
		<route edges="-140 -152 -162 -168 -252 -242 -244 -208 -196 -192 -184"/>
	</vehicle>
	<vehicle id="258" depart="258.0">
		<route edges="--210 --214 -220 --230 -252 --172 -170 -134 --124 --112 -106"/>
	</vehicle>
	<vehicle id="259" depart="259.0">
		<route edges="-162 -166 -170 -134 -136 -246"/>
	</vehicle>
	<vehicle id="260" depart="260.0">
		<route edges="-220 -232 -244 -208 --206 -246"/>
	</vehicle>
	<vehicle id="261" depart="261.0">
		<route edges="--210 --214 -220 --230 -252 --172 -170 -134 --124 --112 -106"/>
	</vehicle>
	<vehicle id="262" depart="262.0">
		<route edges="-162 -166 -170 -134 -136 -246"/>
	</vehicle>
	<vehicle id="263" depart="263.0">
		<route edges="-220 -232 -244 -208 --206 -246"/>
	</vehicle>
	<vehicle id="264" depart="264.0">
		<route edges="-220 -232 -244 -208 --206 -246"/>
	</vehicle>
	<vehicle id="265" depart="265.0">
		<route edges="-162 -166 -170 -134 -136 -246"/>
	</vehicle>