<?xml version="1.0" encoding="UTF-8"?>

<!-- generated on Wed Nov 27 10:45:33 2013 by SUMO netconvert Version 0.18.0
<?xml version="1.0" encoding="UTF-8"?>

<configuration xmlns:xsi="http://www.w3.org/2001/XMLSchema-instance" xsi:noNamespaceSchemaLocation="http://sumo.sf.net/xsd/netconvertConfiguration.xsd">

    <input>
        <osm-files value="grid7x7/grid7x7.osm"/>
    </input>

    <output>
        <output-file value="grid7x7/grid7x7.net.xml"/>
    </output>

    <projection>
        <proj.utm value="true"/>
    </projection>

    <processing>
        <no-internal-links value="true"/>
    </processing>

</configuration>
-->

<net version="0.13" xmlns:xsi="http://www.w3.org/2001/XMLSchema-instance" xsi:noNamespaceSchemaLocation="http://sumo.sf.net/xsd/net_file.xsd">

    <location netOffset="-829276.22,337.31" convBoundary="0.00,0.00,1523.61,1497.90" origBoundary="-0.042201,-0.003048,-0.028527,0.010486" projParameter="+proj=utm +zone=30 +ellps=WGS84 +datum=WGS84 +units=m +no_defs"/>

    <edge id="--102" from="-4" to="-6" priority="6" type="highway.tertiary">
        <lane id="--102_0" index="0" speed="6.94" length="249.57" shape="18.10,4.19 15.44,245.75"/>
    </edge>
    <edge id="--104" from="-10" to="-4" priority="6" type="highway.tertiary">
        <lane id="--104_0" index="0" speed="6.94" length="250.24" shape="261.94,2.45 19.70,2.61"/>
    </edge>
    <edge id="--106" from="-6" to="-8" priority="6" type="highway.tertiary">
        <lane id="--106_0" index="0" speed="5.56" length="248.57" shape="15.34,255.25 12.70,494.30"/>
    </edge>
    <edge id="--108" from="-12" to="-6" priority="6" type="highway.tertiary">
        <lane id="--108_0" index="0" speed="6.94" length="250.24" shape="259.19,252.01 18.53,252.17"/>
    </edge>
    <edge id="--110" from="-8" to="-92" priority="6" type="highway.tertiary">
        <lane id="--110_0" index="0" speed="5.56" length="250.27" shape="12.60,503.80 9.95,744.56"/>
    </edge>
    <edge id="--112" from="-14" to="-8" priority="6" type="highway.tertiary">
        <lane id="--112_0" index="0" speed="6.94" length="250.24" shape="256.46,500.56 15.79,500.72"/>
    </edge>
    <edge id="--114" from="-10" to="-12" priority="6" type="highway.tertiary">
        <lane id="--114_0" index="0" speed="6.94" length="249.57" shape="268.32,5.61 265.68,245.59"/>
    </edge>
    <edge id="--116" from="-16" to="-10" priority="6" type="highway.tertiary">
        <lane id="--116_0" index="0" speed="6.94" length="251.26" shape="513.19,2.29 271.44,2.45"/>
    </edge>
    <edge id="--118" from="-12" to="-14" priority="6" type="highway.tertiary">
        <lane id="--118_0" index="0" speed="6.94" length="248.57" shape="265.58,255.17 262.95,494.14"/>
    </edge>
    <edge id="--120" from="-18" to="-12" priority="6" type="highway.tertiary">
        <lane id="--120_0" index="0" speed="6.94" length="251.26" shape="510.45,251.85 268.77,252.01"/>
    </edge>
    <edge id="--122" from="-14" to="-90" priority="6" type="highway.tertiary">
        <lane id="--122_0" index="0" speed="6.94" length="250.27" shape="262.84,503.72 260.19,744.40"/>
    </edge>
    <edge id="--124" from="-20" to="-14" priority="6" type="highway.tertiary">
        <lane id="--124_0" index="0" speed="6.94" length="251.26" shape="504.41,500.41 266.03,500.56"/>
    </edge>
    <edge id="--126" from="-16" to="-18" priority="6" type="highway.tertiary">
        <lane id="--126_0" index="0" speed="6.94" length="249.57" shape="519.58,5.45 516.94,245.43"/>
    </edge>
    <edge id="--128" from="-86" to="-16" priority="6" type="highway.tertiary">
        <lane id="--128_0" index="0" speed="6.94" length="252.01" shape="765.20,2.11 522.69,2.29"/>
    </edge>
    <edge id="--130" from="-18" to="-20" priority="6" type="highway.tertiary">
        <lane id="--130_0" index="0" speed="6.94" length="248.57" shape="516.83,255.01 514.24,490.68"/>
    </edge>
    <edge id="--132" from="-84" to="-18" priority="6" type="highway.tertiary">
        <lane id="--132_0" index="0" speed="6.94" length="252.01" shape="762.45,251.67 520.02,251.85"/>
    </edge>
    <edge id="--134" from="-20" to="-88" priority="6" type="highway.tertiary">
        <lane id="--134_0" index="0" speed="8.33" length="250.27" shape="517.36,506.78 514.75,744.24"/>
        <lane id="--134_1" index="1" speed="8.33" length="250.27" shape="514.06,506.74 511.45,744.20"/>
    </edge>
    <edge id="--136" from="-78" to="-20" priority="6" type="highway.tertiary">
        <lane id="--136_0" index="0" speed="8.33" length="252.01" shape="759.68,503.52 520.48,503.70"/>
        <lane id="--136_1" index="1" speed="8.33" length="252.01" shape="759.68,500.22 520.47,500.40"/>
    </edge>
    <edge id="--138" from="-24" to="-22" priority="6" type="highway.tertiary">
        <lane id="--138_0" index="0" speed="6.94" length="248.57" shape="4.34,1254.08 1.69,1494.63"/>
    </edge>
    <edge id="--140" from="-28" to="-22" priority="6" type="highway.tertiary">
        <lane id="--140_0" index="0" speed="6.94" length="250.24" shape="245.53,1499.40 3.29,1499.55"/>
    </edge>
    <edge id="--142" from="-26" to="-24" priority="6" type="highway.tertiary">
        <lane id="--142_0" index="0" speed="5.56" length="249.57" shape="7.09,1004.52 4.44,1244.58"/>
    </edge>
    <edge id="--144" from="-30" to="-24" priority="6" type="highway.tertiary">
        <lane id="--144_0" index="0" speed="6.94" length="250.24" shape="248.19,1250.84 7.53,1251.00"/>
    </edge>
    <edge id="--146" from="-92" to="-26" priority="6" type="highway.tertiary">
        <lane id="--146_0" index="0" speed="5.56" length="250.48" shape="9.84,754.06 7.19,995.02"/>
    </edge>
    <edge id="--148" from="-32" to="-26" priority="6" type="highway.tertiary">
        <lane id="--148_0" index="0" speed="6.94" length="250.24" shape="250.94,1001.29 10.28,1001.44"/>
    </edge>
    <edge id="--150" from="-30" to="-28" priority="6" type="highway.tertiary">
        <lane id="--150_0" index="0" speed="6.94" length="248.57" shape="254.58,1254.00 251.94,1492.97"/>
    </edge>
    <edge id="--152" from="-34" to="-28" priority="6" type="highway.tertiary">
        <lane id="--152_0" index="0" speed="6.94" length="251.26" shape="496.79,1499.24 255.03,1499.39"/>
    </edge>
    <edge id="--154" from="-32" to="-30" priority="6" type="highway.tertiary">
        <lane id="--154_0" index="0" speed="6.94" length="249.57" shape="257.33,1004.44 254.68,1244.42"/>
    </edge>
    <edge id="--156" from="-36" to="-30" priority="6" type="highway.tertiary">
        <lane id="--156_0" index="0" speed="6.94" length="251.26" shape="499.45,1250.69 257.77,1250.84"/>
    </edge>
    <edge id="--158" from="-90" to="-32" priority="6" type="highway.tertiary">
        <lane id="--158_0" index="0" speed="6.94" length="250.48" shape="260.08,753.97 257.43,994.86"/>
    </edge>
    <edge id="--160" from="-38" to="-32" priority="6" type="highway.tertiary">
        <lane id="--160_0" index="0" speed="6.94" length="251.26" shape="498.97,1001.13 260.52,1001.28"/>
    </edge>
    <edge id="--162" from="-36" to="-34" priority="6" type="highway.tertiary">
        <lane id="--162_0" index="0" speed="6.94" length="248.57" shape="505.83,1253.84 503.20,1492.82"/>
    </edge>
    <edge id="--164" from="-82" to="-34" priority="6" type="highway.tertiary">
        <lane id="--164_0" index="0" speed="6.94" length="252.01" shape="748.79,1499.06 506.29,1499.23"/>
    </edge>
    <edge id="--166" from="-38" to="-36" priority="6" type="highway.tertiary">
        <lane id="--166_0" index="0" speed="6.94" length="249.57" shape="508.55,1007.51 505.94,1244.26"/>
    </edge>
    <edge id="--168" from="-76" to="-36" priority="6" type="highway.tertiary">
        <lane id="--168_0" index="0" speed="6.94" length="252.01" shape="751.45,1250.51 509.02,1250.68"/>
    </edge>
    <edge id="--170" from="-88" to="-38" priority="6" type="highway.tertiary">
        <lane id="--170_0" index="0" speed="8.33" length="250.48" shape="514.64,753.89 512.02,991.40"/>
        <lane id="--170_1" index="1" speed="8.33" length="250.48" shape="511.34,753.85 508.72,991.37"/>
    </edge>
    <edge id="--172" from="-80" to="-38" priority="6" type="highway.tertiary">
        <lane id="--172_0" index="0" speed="8.33" length="252.01" shape="754.17,1004.25 515.11,1004.42"/>
        <lane id="--172_1" index="1" speed="8.33" length="252.01" shape="754.17,1000.95 515.11,1001.12"/>
    </edge>
    <edge id="--174" from="-40" to="-44" priority="6" type="highway.tertiary">
        <lane id="--174_0" index="0" speed="6.94" length="249.58" shape="1525.23,3.31 1522.57,244.87"/>
    </edge>
    <edge id="--176" from="-40" to="-42" priority="6" type="highway.tertiary">
        <lane id="--176_0" index="0" speed="6.94" length="251.26" shape="1520.32,1.65 1277.07,1.81"/>
    </edge>
    <edge id="--178" from="-42" to="-52" priority="6" type="highway.tertiary">
        <lane id="--178_0" index="0" speed="6.94" length="250.24" shape="1267.57,1.81 1026.82,1.97"/>
    </edge>
    <edge id="--180" from="-42" to="-46" priority="6" type="highway.tertiary">
        <lane id="--180_0" index="0" speed="6.94" length="249.58" shape="1273.95,4.97 1271.31,244.95"/>
    </edge>
    <edge id="--182" from="-44" to="-46" priority="6" type="highway.tertiary">
        <lane id="--182_0" index="0" speed="6.94" length="251.26" shape="1516.08,251.21 1274.40,251.37"/>
    </edge>
    <edge id="--184" from="-44" to="-48" priority="6" type="highway.tertiary">
        <lane id="--184_0" index="0" speed="5.56" length="248.57" shape="1522.46,254.37 1519.83,493.42"/>
    </edge>
    <edge id="--186" from="-46" to="-54" priority="6" type="highway.tertiary">
        <lane id="--186_0" index="0" speed="6.94" length="250.24" shape="1264.82,251.37 1024.15,251.53"/>
    </edge>
    <edge id="--188" from="-46" to="-50" priority="6" type="highway.tertiary">
        <lane id="--188_0" index="0" speed="6.94" length="248.57" shape="1271.20,254.53 1268.57,493.50"/>
    </edge>
    <edge id="--190" from="-48" to="-94" priority="6" type="highway.tertiary">
        <lane id="--190_0" index="0" speed="5.56" length="250.28" shape="1519.73,502.92 1517.07,743.68"/>
    </edge>
    <edge id="--192" from="-48" to="-50" priority="6" type="highway.tertiary">
        <lane id="--192_0" index="0" speed="6.94" length="251.26" shape="1513.34,499.77 1271.66,499.92"/>
    </edge>
    <edge id="--194" from="-50" to="-98" priority="6" type="highway.tertiary">
        <lane id="--194_0" index="0" speed="6.94" length="250.28" shape="1268.47,503.08 1265.82,743.76"/>
    </edge>
    <edge id="--196" from="-50" to="-56" priority="6" type="highway.tertiary">
        <lane id="--196_0" index="0" speed="6.94" length="250.24" shape="1262.08,499.93 1024.64,500.08"/>
    </edge>
    <edge id="--198" from="-52" to="-86" priority="6" type="highway.tertiary">
        <lane id="--198_0" index="0" speed="6.94" length="252.12" shape="1017.32,1.97 774.70,2.11"/>
    </edge>
    <edge id="--200" from="-52" to="-54" priority="6" type="highway.tertiary">
        <lane id="--200_0" index="0" speed="6.94" length="249.57" shape="1023.71,5.13 1021.07,245.11"/>
    </edge>
    <edge id="--202" from="-54" to="-84" priority="6" type="highway.tertiary">
        <lane id="--202_0" index="0" speed="6.94" length="252.12" shape="1014.58,251.53 772.03,251.67"/>
    </edge>
    <edge id="--204" from="-54" to="-56" priority="6" type="highway.tertiary">
        <lane id="--204_0" index="0" speed="6.94" length="248.57" shape="1020.96,254.69 1018.37,490.44"/>
    </edge>
    <edge id="--206" from="-56" to="-78" priority="6" type="highway.tertiary">
        <lane id="--206_0" index="0" speed="8.33" length="252.12" shape="1008.50,503.39 769.33,503.52"/>
        <lane id="--206_1" index="1" speed="8.33" length="252.12" shape="1008.50,500.09 769.33,500.22"/>
    </edge>
    <edge id="--208" from="-56" to="-96" priority="6" type="highway.tertiary">
        <lane id="--208_0" index="0" speed="8.33" length="250.27" shape="1021.49,506.61 1018.87,743.92"/>
        <lane id="--208_1" index="1" speed="8.33" length="250.27" shape="1018.19,506.58 1015.57,743.88"/>
    </edge>
    <edge id="--210" from="-58" to="-60" priority="6" type="highway.tertiary">
        <lane id="--210_0" index="0" speed="6.94" length="251.26" shape="1503.92,1498.61 1260.66,1498.76"/>
    </edge>
    <edge id="--212" from="-64" to="-58" priority="6" type="highway.tertiary">
        <lane id="--212_0" index="0" speed="6.94" length="248.57" shape="1511.46,1253.21 1508.81,1493.76"/>
    </edge>
    <edge id="--214" from="-60" to="-62" priority="6" type="highway.tertiary">
        <lane id="--214_0" index="0" speed="6.94" length="250.24" shape="1251.16,1498.77 1010.42,1498.92"/>
    </edge>
    <edge id="--216" from="-66" to="-60" priority="6" type="highway.tertiary">
        <lane id="--216_0" index="0" speed="6.94" length="248.57" shape="1260.21,1253.37 1257.57,1492.35"/>
    </edge>
    <edge id="--218" from="-62" to="-82" priority="6" type="highway.tertiary">
        <lane id="--218_0" index="0" speed="6.94" length="252.12" shape="1000.91,1498.92 758.29,1499.05"/>
    </edge>
    <edge id="--220" from="-68" to="-62" priority="6" type="highway.tertiary">
        <lane id="--220_0" index="0" speed="6.94" length="248.57" shape="1009.96,1253.52 1007.33,1492.50"/>
    </edge>
    <edge id="--222" from="-64" to="-66" priority="6" type="highway.tertiary">
        <lane id="--222_0" index="0" speed="6.94" length="251.26" shape="1505.08,1250.06 1263.40,1250.21"/>
    </edge>
    <edge id="--224" from="-70" to="-64" priority="6" type="highway.tertiary">
        <lane id="--224_0" index="0" speed="5.56" length="249.58" shape="1514.21,1003.65 1511.57,1243.71"/>
    </edge>
    <edge id="--226" from="-66" to="-68" priority="6" type="highway.tertiary">
        <lane id="--226_0" index="0" speed="6.94" length="250.24" shape="1253.82,1250.21 1013.15,1250.37"/>
    </edge>
    <edge id="--228" from="-72" to="-66" priority="6" type="highway.tertiary">
        <lane id="--228_0" index="0" speed="6.94" length="249.58" shape="1262.95,1003.81 1260.31,1243.79"/>
    </edge>
    <edge id="--230" from="-68" to="-76" priority="6" type="highway.tertiary">
        <lane id="--230_0" index="0" speed="6.94" length="252.12" shape="1003.58,1250.37 761.03,1250.50"/>
    </edge>
    <edge id="--232" from="-74" to="-68" priority="6" type="highway.tertiary">
        <lane id="--232_0" index="0" speed="6.94" length="249.57" shape="1012.67,1007.26 1010.07,1243.95"/>
    </edge>
    <edge id="--234" from="-70" to="-72" priority="6" type="highway.tertiary">
        <lane id="--234_0" index="0" speed="6.94" length="251.26" shape="1507.83,1000.50 1266.15,1000.65"/>
    </edge>
    <edge id="--236" from="-94" to="-70" priority="6" type="highway.tertiary">
        <lane id="--236_0" index="0" speed="5.56" length="250.48" shape="1516.97,753.18 1514.32,994.15"/>
    </edge>
    <edge id="--238" from="-72" to="-74" priority="6" type="highway.tertiary">
        <lane id="--238_0" index="0" speed="6.94" length="250.24" shape="1256.57,1000.65 1019.20,1000.80"/>
    </edge>
    <edge id="--240" from="-98" to="-72" priority="6" type="highway.tertiary">
        <lane id="--240_0" index="0" speed="6.94" length="250.48" shape="1265.71,753.34 1263.06,994.23"/>
    </edge>
    <edge id="--242" from="-74" to="-80" priority="6" type="highway.tertiary">
        <lane id="--242_0" index="0" speed="8.33" length="252.12" shape="1003.14,1004.11 763.82,1004.24"/>
        <lane id="--242_1" index="1" speed="8.33" length="252.12" shape="1003.14,1000.81 763.82,1000.94"/>
    </edge>
    <edge id="--244" from="-96" to="-74" priority="6" type="highway.tertiary">
        <lane id="--244_0" index="0" speed="8.33" length="250.48" shape="1018.77,753.57 1016.15,991.24"/>
        <lane id="--244_1" index="1" speed="8.33" length="250.48" shape="1015.47,753.54 1012.85,991.20"/>
    </edge>
    <edge id="--246" from="-84" to="-78" priority="6" type="highway.tertiary">
        <lane id="--246_0" index="0" speed="6.94" length="248.57" shape="768.84,254.82 766.24,490.50"/>
    </edge>
    <edge id="--248" from="-76" to="-82" priority="6" type="highway.tertiary">
        <lane id="--248_0" index="0" speed="6.94" length="248.57" shape="757.84,1253.66 755.21,1492.64"/>
    </edge>
    <edge id="--250" from="-86" to="-84" priority="6" type="highway.tertiary">
        <lane id="--250_0" index="0" speed="6.94" length="249.57" shape="771.59,5.26 768.94,245.25"/>
    </edge>
    <edge id="--252" from="-80" to="-76" priority="6" type="highway.tertiary">
        <lane id="--252_0" index="0" speed="6.94" length="249.57" shape="760.55,1007.40 757.94,1244.09"/>
    </edge>
    <edge id="--254" from="-78" to="-100" priority="6" type="highway.tertiary">
        <lane id="--254_0" index="0" speed="6.94" length="250.27" shape="766.07,506.68 763.45,744.06"/>
    </edge>
    <edge id="--256" from="-100" to="-80" priority="6" type="highway.tertiary">
        <lane id="--256_0" index="0" speed="6.94" length="250.48" shape="763.35,753.64 760.73,991.23"/>
    </edge>
    <edge id="--258" from="-90" to="-92" priority="6" type="highway.tertiary">
        <lane id="--258_0" index="0" speed="6.94" length="250.24" shape="253.70,750.82 13.03,750.97"/>
    </edge>
    <edge id="--260" from="-100" to="-88" priority="6" type="highway.tertiary">
        <lane id="--260_0" index="0" speed="6.94" length="252.01" shape="756.96,750.48 517.83,750.65"/>
    </edge>
    <edge id="--262" from="-88" to="-90" priority="6" type="highway.tertiary">
        <lane id="--262_0" index="0" speed="6.94" length="251.26" shape="501.66,750.67 263.28,750.82"/>
    </edge>
    <edge id="--264" from="-94" to="-98" priority="6" type="highway.tertiary">
        <lane id="--264_0" index="0" speed="6.94" length="251.26" shape="1510.59,750.03 1268.90,750.18"/>
    </edge>
    <edge id="--266" from="-98" to="-96" priority="6" type="highway.tertiary">
        <lane id="--266_0" index="0" speed="6.94" length="250.24" shape="1259.33,750.19 1021.96,750.34"/>
    </edge>
    <edge id="--268" from="-96" to="-100" priority="6" type="highway.tertiary">
        <lane id="--268_0" index="0" speed="6.94" length="252.12" shape="1005.78,750.35 766.54,750.48"/>
    </edge>
    <edge id="-102" from="-6" to="-4" priority="6" type="highway.tertiary">
        <lane id="-102_0" index="0" speed="6.94" length="249.57" shape="12.14,245.71 14.80,4.15"/>
    </edge>
    <edge id="-104" from="-4" to="-10" priority="6" type="highway.tertiary">
        <lane id="-104_0" index="0" speed="6.94" length="250.24" shape="19.70,-0.69 261.94,-0.85"/>
    </edge>
    <edge id="-106" from="-8" to="-6" priority="6" type="highway.tertiary">
        <lane id="-106_0" index="0" speed="5.56" length="248.57" shape="9.40,494.26 12.04,255.21"/>
    </edge>
    <edge id="-108" from="-6" to="-12" priority="6" type="highway.tertiary">
        <lane id="-108_0" index="0" speed="6.94" length="250.24" shape="18.52,248.87 259.19,248.71"/>
    </edge>
    <edge id="-110" from="-92" to="-8" priority="6" type="highway.tertiary">
        <lane id="-110_0" index="0" speed="5.56" length="250.27" shape="6.65,744.52 9.30,503.76"/>
    </edge>
    <edge id="-112" from="-8" to="-14" priority="6" type="highway.tertiary">
        <lane id="-112_0" index="0" speed="6.94" length="250.24" shape="15.79,497.42 256.45,497.26"/>
    </edge>
    <edge id="-114" from="-12" to="-10" priority="6" type="highway.tertiary">
        <lane id="-114_0" index="0" speed="6.94" length="249.57" shape="262.38,245.55 265.02,5.57"/>
    </edge>
    <edge id="-116" from="-10" to="-16" priority="6" type="highway.tertiary">
        <lane id="-116_0" index="0" speed="6.94" length="251.26" shape="271.44,-0.85 513.19,-1.01"/>
    </edge>
    <edge id="-118" from="-14" to="-12" priority="6" type="highway.tertiary">
        <lane id="-118_0" index="0" speed="6.94" length="248.57" shape="259.65,494.11 262.28,255.13"/>
    </edge>
    <edge id="-120" from="-12" to="-18" priority="6" type="highway.tertiary">
        <lane id="-120_0" index="0" speed="6.94" length="251.26" shape="268.77,248.71 510.45,248.55"/>
    </edge>
    <edge id="-122" from="-90" to="-14" priority="6" type="highway.tertiary">
        <lane id="-122_0" index="0" speed="6.94" length="250.27" shape="256.89,744.36 259.54,503.68"/>
    </edge>
    <edge id="-124" from="-14" to="-20" priority="6" type="highway.tertiary">
        <lane id="-124_0" index="0" speed="6.94" length="251.26" shape="266.03,497.26 504.41,497.11"/>
    </edge>
    <edge id="-126" from="-18" to="-16" priority="6" type="highway.tertiary">
        <lane id="-126_0" index="0" speed="6.94" length="249.57" shape="513.64,245.39 516.28,5.41"/>
    </edge>
    <edge id="-128" from="-16" to="-86" priority="6" type="highway.tertiary">
        <lane id="-128_0" index="0" speed="6.94" length="252.01" shape="522.69,-1.01 765.20,-1.19"/>
    </edge>
    <edge id="-130" from="-20" to="-18" priority="6" type="highway.tertiary">
        <lane id="-130_0" index="0" speed="6.94" length="248.57" shape="510.94,490.65 513.53,254.97"/>
    </edge>
    <edge id="-132" from="-18" to="-84" priority="6" type="highway.tertiary">
        <lane id="-132_0" index="0" speed="6.94" length="252.01" shape="520.02,248.55 762.45,248.37"/>
    </edge>
    <edge id="-134" from="-88" to="-20" priority="6" type="highway.tertiary">
        <lane id="-134_0" index="0" speed="8.33" length="250.27" shape="504.85,744.13 507.46,506.67"/>
        <lane id="-134_1" index="1" speed="8.33" length="250.27" shape="508.15,744.17 510.76,506.71"/>
    </edge>
    <edge id="-136" from="-20" to="-78" priority="6" type="highway.tertiary">
        <lane id="-136_0" index="0" speed="8.33" length="252.01" shape="520.47,493.80 759.67,493.62"/>
        <lane id="-136_1" index="1" speed="8.33" length="252.01" shape="520.47,497.10 759.68,496.92"/>
    </edge>
    <edge id="-138" from="-22" to="-24" priority="6" type="highway.tertiary">
        <lane id="-138_0" index="0" speed="6.94" length="248.57" shape="-1.61,1494.59 1.04,1254.04"/>
    </edge>
    <edge id="-140" from="-22" to="-28" priority="6" type="highway.tertiary">
        <lane id="-140_0" index="0" speed="6.94" length="250.24" shape="3.29,1496.25 245.53,1496.10"/>
    </edge>
    <edge id="-142" from="-24" to="-26" priority="6" type="highway.tertiary">
        <lane id="-142_0" index="0" speed="5.56" length="249.57" shape="1.14,1244.54 3.79,1004.48"/>
    </edge>
    <edge id="-144" from="-24" to="-30" priority="6" type="highway.tertiary">
        <lane id="-144_0" index="0" speed="6.94" length="250.24" shape="7.53,1247.70 248.19,1247.54"/>
    </edge>
    <edge id="-146" from="-26" to="-92" priority="6" type="highway.tertiary">
        <lane id="-146_0" index="0" speed="5.56" length="250.48" shape="3.89,994.99 6.54,754.02"/>
    </edge>
    <edge id="-148" from="-26" to="-32" priority="6" type="highway.tertiary">
        <lane id="-148_0" index="0" speed="6.94" length="250.24" shape="10.27,998.14 250.94,997.99"/>
    </edge>
    <edge id="-150" from="-28" to="-30" priority="6" type="highway.tertiary">
        <lane id="-150_0" index="0" speed="6.94" length="248.57" shape="248.64,1492.94 251.28,1253.96"/>
    </edge>
    <edge id="-152" from="-28" to="-34" priority="6" type="highway.tertiary">
        <lane id="-152_0" index="0" speed="6.94" length="251.26" shape="255.03,1496.09 496.78,1495.94"/>
    </edge>
    <edge id="-154" from="-30" to="-32" priority="6" type="highway.tertiary">
        <lane id="-154_0" index="0" speed="6.94" length="249.57" shape="251.38,1244.39 254.03,1004.40"/>
    </edge>
    <edge id="-156" from="-30" to="-36" priority="6" type="highway.tertiary">
        <lane id="-156_0" index="0" speed="6.94" length="251.26" shape="257.77,1247.54 499.45,1247.39"/>
    </edge>
    <edge id="-158" from="-32" to="-90" priority="6" type="highway.tertiary">
        <lane id="-158_0" index="0" speed="6.94" length="250.48" shape="254.13,994.83 256.78,753.94"/>
    </edge>
    <edge id="-160" from="-32" to="-38" priority="6" type="highway.tertiary">
        <lane id="-160_0" index="0" speed="6.94" length="251.26" shape="260.52,997.98 498.97,997.83"/>
    </edge>
    <edge id="-162" from="-34" to="-36" priority="6" type="highway.tertiary">
        <lane id="-162_0" index="0" speed="6.94" length="248.57" shape="499.90,1492.78 502.53,1253.80"/>
    </edge>
    <edge id="-164" from="-34" to="-82" priority="6" type="highway.tertiary">
        <lane id="-164_0" index="0" speed="6.94" length="252.01" shape="506.28,1495.93 748.79,1495.76"/>
    </edge>
    <edge id="-166" from="-36" to="-38" priority="6" type="highway.tertiary">
        <lane id="-166_0" index="0" speed="6.94" length="249.57" shape="502.64,1244.23 505.25,1007.47"/>
    </edge>
    <edge id="-168" from="-36" to="-76" priority="6" type="highway.tertiary">
        <lane id="-168_0" index="0" speed="6.94" length="252.01" shape="509.02,1247.38 751.45,1247.21"/>
    </edge>
    <edge id="-170" from="-38" to="-88" priority="6" type="highway.tertiary">
        <lane id="-170_0" index="0" speed="8.33" length="250.48" shape="502.12,991.29 504.74,753.78"/>
        <lane id="-170_1" index="1" speed="8.33" length="250.48" shape="505.42,991.33 508.04,753.82"/>
    </edge>
    <edge id="-172" from="-38" to="-80" priority="6" type="highway.tertiary">
        <lane id="-172_0" index="0" speed="8.33" length="252.01" shape="515.11,994.52 754.16,994.35"/>
        <lane id="-172_1" index="1" speed="8.33" length="252.01" shape="515.11,997.82 754.16,997.65"/>
    </edge>
    <edge id="-174" from="-44" to="-40" priority="6" type="highway.tertiary">
        <lane id="-174_0" index="0" speed="6.94" length="249.58" shape="1519.27,244.83 1521.93,3.27"/>
    </edge>
    <edge id="-176" from="-42" to="-40" priority="6" type="highway.tertiary">
        <lane id="-176_0" index="0" speed="6.94" length="251.26" shape="1277.07,-1.49 1520.32,-1.65"/>
    </edge>
    <edge id="-178" from="-52" to="-42" priority="6" type="highway.tertiary">
        <lane id="-178_0" index="0" speed="6.94" length="250.24" shape="1026.82,-1.33 1267.57,-1.49"/>
    </edge>
    <edge id="-180" from="-46" to="-42" priority="6" type="highway.tertiary">
        <lane id="-180_0" index="0" speed="6.94" length="249.58" shape="1268.01,244.91 1270.65,4.93"/>
    </edge>
    <edge id="-182" from="-46" to="-44" priority="6" type="highway.tertiary">
        <lane id="-182_0" index="0" speed="6.94" length="251.26" shape="1274.39,248.07 1516.08,247.91"/>
    </edge>
    <edge id="-184" from="-48" to="-44" priority="6" type="highway.tertiary">
        <lane id="-184_0" index="0" speed="5.56" length="248.57" shape="1516.53,493.38 1519.16,254.33"/>
    </edge>
    <edge id="-186" from="-54" to="-46" priority="6" type="highway.tertiary">
        <lane id="-186_0" index="0" speed="6.94" length="250.24" shape="1024.15,248.23 1264.82,248.07"/>
    </edge>
    <edge id="-188" from="-50" to="-46" priority="6" type="highway.tertiary">
        <lane id="-188_0" index="0" speed="6.94" length="248.57" shape="1265.27,493.47 1267.90,254.49"/>
    </edge>
    <edge id="-190" from="-94" to="-48" priority="6" type="highway.tertiary">
        <lane id="-190_0" index="0" speed="5.56" length="250.28" shape="1513.77,743.65 1516.43,502.88"/>
    </edge>
    <edge id="-192" from="-50" to="-48" priority="6" type="highway.tertiary">
        <lane id="-192_0" index="0" speed="6.94" length="251.26" shape="1271.66,496.62 1513.34,496.47"/>
    </edge>
    <edge id="-194" from="-98" to="-50" priority="6" type="highway.tertiary">
        <lane id="-194_0" index="0" speed="6.94" length="250.28" shape="1262.52,743.73 1265.17,503.04"/>
    </edge>
    <edge id="-196" from="-56" to="-50" priority="6" type="highway.tertiary">
        <lane id="-196_0" index="0" speed="6.94" length="250.24" shape="1024.64,496.78 1262.08,496.63"/>
    </edge>
    <edge id="-198" from="-86" to="-52" priority="6" type="highway.tertiary">
        <lane id="-198_0" index="0" speed="6.94" length="252.12" shape="774.70,-1.19 1017.32,-1.33"/>
    </edge>
    <edge id="-200" from="-54" to="-52" priority="6" type="highway.tertiary">
        <lane id="-200_0" index="0" speed="6.94" length="249.57" shape="1017.77,245.07 1020.41,5.09"/>
    </edge>
    <edge id="-202" from="-84" to="-54" priority="6" type="highway.tertiary">
        <lane id="-202_0" index="0" speed="6.94" length="252.12" shape="772.03,248.37 1014.58,248.23"/>
    </edge>
    <edge id="-204" from="-56" to="-54" priority="6" type="highway.tertiary">
        <lane id="-204_0" index="0" speed="6.94" length="248.57" shape="1015.07,490.40 1017.66,254.65"/>
    </edge>
    <edge id="-206" from="-78" to="-56" priority="6" type="highway.tertiary">
        <lane id="-206_0" index="0" speed="8.33" length="252.12" shape="769.33,493.62 1008.50,493.49"/>
        <lane id="-206_1" index="1" speed="8.33" length="252.12" shape="769.33,496.92 1008.50,496.79"/>
    </edge>
    <edge id="-208" from="-96" to="-56" priority="6" type="highway.tertiary">
        <lane id="-208_0" index="0" speed="8.33" length="250.27" shape="1008.98,743.81 1011.59,506.50"/>
        <lane id="-208_1" index="1" speed="8.33" length="250.27" shape="1012.28,743.85 1014.89,506.54"/>
    </edge>
    <edge id="-210" from="-60" to="-58" priority="6" type="highway.tertiary">
        <lane id="-210_0" index="0" speed="6.94" length="251.26" shape="1260.66,1495.46 1503.91,1495.31"/>
    </edge>
    <edge id="-212" from="-58" to="-64" priority="6" type="highway.tertiary">
        <lane id="-212_0" index="0" speed="6.94" length="248.57" shape="1505.51,1493.73 1508.16,1253.17"/>
    </edge>
    <edge id="-214" from="-62" to="-60" priority="6" type="highway.tertiary">
        <lane id="-214_0" index="0" speed="6.94" length="250.24" shape="1010.41,1495.62 1251.16,1495.47"/>
    </edge>
    <edge id="-216" from="-60" to="-66" priority="6" type="highway.tertiary">