<?xml version='1.0' encoding='UTF-8'?>
<net xmlns:xsi="http://www.w3.org/2001/XMLSchema-instance" version="0.13" xsi:noNamespaceSchemaLocation="http://sumo-sim.org/xsd/net_file.xsd">

    <location convBoundary="0.00,0.00,1605.73,1914.31" netOffset="-674460.37,-3892238.15" origBoundary="136.915499,35.157888,136.933101,35.174937" projParameter="+proj=utm +zone=53 +ellps=WGS84 +datum=WGS84 +units=m +no_defs" />

    <edge from="18" id="-147609742#0" priority="4" to="1608112546" type="highway.residential">
        <lane id="-147609742#0_0" index="0" length="30.80" shape="1024.58,434.26 1001.13,445.07" speed="13.89" />
    </edge>
    <edge from="1608112527" id="-147609742#1" priority="4" to="18" type="highway.residential">
        <lane id="-147609742#1_0" index="0" length="28.44" shape="1045.56,424.60 1024.58,434.26" speed="13.89" />
    </edge>
    <edge from="1608112526" id="-147609742#2" priority="4" to="1608112527" type="highway.residential">
        <lane id="-147609742#2_0" index="0" length="11.74" shape="1058.59,418.80 1054.22,420.70" speed="13.89" />
    </edge>
    <edge from="1608112543" id="-147609742#3" priority="4" shape="1116.73,442.68 1092.40,427.90 1054.61,418.74" to="1608112526" type="highway.residential">
        <lane id="-147609742#3_0" index="0" length="73.78" shape="1110.90,441.07 1091.76,429.45 1062.60,422.38" speed="13.89" />
    </edge>
    <edge from="14" id="-147609742#4" priority="4" to="1608112543" type="highway.residential">
        <lane id="-147609742#4_0" index="0" length="27.59" shape="1133.88,464.36 1118.70,447.36" speed="13.89" />
    </edge>
    <edge from="1608112588" id="-147609742#5" priority="4" to="14" type="highway.residential">
        <lane id="-147609742#5_0" index="0" length="27.41" shape="1149.06,481.38 1133.88,464.36" speed="13.89" />
    </edge>
    <edge from="1608112661" id="-147609742#6" priority="4" shape="1195.82,523.35 1191.28,511.23 1169.19,487.32 1153.35,483.71" to="1608112588" type="highway.residential">
        <lane id="-147609742#6_0" index="0" length="61.74" shape="1192.70,519.71 1189.85,512.12 1168.33,488.81 1156.18,486.05" speed="13.89" />
    </edge>
    <edge from="1608112748" id="-147609742#7" priority="4" to="1608112661" type="highway.residential">
        <lane id="-147609742#7_0" index="0" length="56.27" shape="1206.37,574.21 1195.50,529.06" speed="13.89" />
    </edge>
    <edge from="1608112811" id="-147609742#8" priority="4" shape="1235.91,630.96 1219.17,611.22 1209.00,578.06" to="1608112748" type="highway.residential">
        <lane id="-147609742#8_0" index="0" length="60.57" shape="1231.54,628.36 1217.69,612.03 1208.88,583.30" speed="13.89" />
    </edge>
    <edge from="16" id="-147609749#0" priority="4" to="1608112526" type="highway.residential">
        <lane id="-147609749#0_0" index="0" length="28.69" shape="1073.72,407.19 1062.60,415.09" speed="13.89" />
    </edge>
    <edge from="15" id="-147609749#1" priority="4" to="16" type="highway.residential">
        <lane id="-147609749#1_0" index="0" length="43.41" shape="1109.11,382.05 1073.72,407.19" speed="13.89" />
    </edge>
    <edge from="1608112473" id="-147609749#2" priority="4" to="15" type="highway.residential">
        <lane id="-147609749#2_0" index="0" length="41.12" shape="1138.66,361.07 1109.11,382.05" speed="13.89" />
    </edge>
    <edge from="1608112760" id="-147609754" priority="4" to="1608112813" type="highway.residential">
        <lane id="-147609754_0" index="0" length="75.08" shape="1061.71,585.82 1011.21,627.84" speed="13.89" />
    </edge>
    <edge from="1608112979" id="-147609758" priority="4" to="1608112964" type="highway.residential">
        <lane id="-147609758_0" index="0" length="56.71" shape="818.52,799.45 853.76,766.33" speed="13.89" />
    </edge>
    <edge from="1608112451" id="-147609761" priority="4" to="1608112488" type="highway.residential">
        <lane id="-147609761_0" index="0" length="110.01" shape="1113.08,327.76 1025.40,376.56" speed="13.89" />
    </edge>
    <edge from="3116369871" id="-147609768#0" priority="4" to="1608112910" type="highway.residential">
        <lane id="-147609768#0_0" index="0" length="66.06" shape="752.35,725.46 795.79,687.21" speed="13.89" />
    </edge>
    <edge from="660732979" id="-147609768#1" priority="4" to="3116369871" type="highway.residential">
        <lane id="-147609768#1_0" index="0" length="10.87" shape="744.50,732.94 747.61,729.87" speed="13.89" />
    </edge>
    <edge from="1608112633" id="-147609776" priority="4" to="3116369917" type="highway.residential">
        <lane id="-147609776_0" index="0" length="80.98" shape="662.39,502.79 601.78,543.59" speed="13.89" />
    </edge>
    <edge from="1608112437" id="-147609786" priority="4" shape="1182.42,303.21 1161.05,327.33 1133.39,346.10" to="1608112462" type="highway.residential">
        <lane id="-147609786_0" index="0" length="65.66" shape="1183.66,304.30 1162.15,328.58 1138.41,344.69" speed="13.89" />
    </edge>
    <edge from="1608112635" id="-147609799#0" priority="4" to="1608112607" type="highway.residential">
        <lane id="-147609799#0_0" index="0" length="23.84" shape="1073.56,508.65 1063.29,498.63" speed="13.89" />
    </edge>
    <edge from="1608112680" id="-147609799#1" priority="4" to="1608112635" type="highway.residential">
        <lane id="-147609799#1_0" index="0" length="32.75" shape="1095.20,532.65 1079.85,515.28" speed="13.89" />
    </edge>
    <edge from="13" id="-147609826#0" priority="4" to="1608112741" type="highway.residential">
        <lane id="-147609826#0_0" index="0" length="30.42" shape="1081.34,553.81 1062.28,570.86" speed="13.89" />
    </edge>
    <edge from="1608112680" id="-147609826#1" priority="4" to="13" type="highway.residential">
        <lane id="-147609826#1_0" index="0" length="26.06" shape="1097.23,539.58 1081.34,553.81" speed="13.89" />
    </edge>
    <edge from="1608112629" id="-147609826#2" priority="4" to="1608112680" type="highway.residential">
        <lane id="-147609826#2_0" index="0" length="43.47" shape="1128.83,509.90 1104.33,533.06" speed="13.89" />
    </edge>
    <edge from="1608112588" id="-147609826#3" priority="4" to="1608112629" type="highway.residential">
        <lane id="-147609826#3_0" index="0" length="30.93" shape="1151.22,488.11 1135.79,503.21" speed="13.89" />
    </edge>
    <edge from="1608112822" id="-147609833#0" priority="4" shape="1123.52,634.33 1185.59,587.01 1209.00,578.06" to="1608112748" type="highway.residential">
        <lane id="-147609833#0_0" index="0" length="103.11" shape="1126.49,629.99 1184.78,585.56 1203.76,578.29" speed="13.89" />
    </edge>
    <edge from="1608112895" id="-147609833#1" priority="4" to="1608112822" type="highway.residential">
        <lane id="-147609833#1_0" index="0" length="38.38" shape="1096.53,654.79 1118.50,636.38" speed="13.89" />
    </edge>
    <edge from="1608112902" id="-147609833#2" priority="4" to="1608112895" type="highway.residential">
        <lane id="-147609833#2_0" index="0" length="45.73" shape="1059.65,684.57 1089.26,660.76" speed="13.89" />
    </edge>
    <edge from="1608112488" id="-147609840#0" priority="4" shape="1020.17,377.58 1000.29,348.47 994.01,304.08" to="1608112439" type="highway.residential">
        <lane id="-147609840#0_0" index="0" length="80.08" shape="1016.29,374.82 998.71,349.08 993.29,310.71" speed="13.89" />
    </edge>
    <edge from="17" id="-147609840#1" priority="4" to="1608112488" type="highway.residential">
        <lane id="-147609840#1_0" index="0" length="26.25" shape="1033.61,400.19 1021.67,382.69" speed="13.89" />
    </edge>
    <edge from="1608112527" id="-147609840#2" priority="4" to="17" type="highway.residential">
        <lane id="-147609840#2_0" index="0" length="26.16" shape="1045.35,417.38 1033.61,400.19" speed="13.89" />
    </edge>
    <edge from="1608112452" id="-147609845" priority="4" shape="1213.12,326.46 1192.44,349.39 1207.40,371.39 1172.27,396.94" to="1608112513" type="highway.residential">
        <lane id="-147609845_0" index="0" length="100.93" shape="1214.34,327.57 1194.53,349.53 1209.66,371.78 1177.12,395.46" speed="13.89" />
    </edge>
    <edge from="1608112629" id="-147609849#0" priority="4" to="1608112685" type="highway.residential">
        <lane id="-147609849#0_0" index="0" length="45.34" shape="1135.70,507.95 1159.27,535.03" speed="13.89" />
    </edge>
    <edge from="1608112635" id="-147609849#1" priority="4" shape="1077.97,510.66 1109.19,482.34 1120.70,494.62 1131.25,505.34" to="1608112629" type="highway.residential">
        <lane id="-147609849#1_0" index="0" length="74.03" shape="1080.35,506.27 1109.29,480.02 1121.91,493.49 1129.05,500.75" speed="13.89" />
    </edge>
    <edge from="2081863141" id="-147609859#0" priority="4" to="1608113011" type="highway.residential">
        <lane id="-147609859#0_0" index="0" length="41.04" shape="927.36,824.24 945.54,849.88" speed="13.89" />
    </edge>
    <edge from="1608112969" id="-147609859#1" priority="4" to="2081863141" type="highway.residential">
        <lane id="-147609859#1_0" index="0" length="55.26" shape="895.28,778.99 921.87,816.49" speed="13.89" />
    </edge>
    <edge from="671145416" id="-147609859#2" priority="4" to="1608112969" type="highway.residential">
        <lane id="-147609859#2_0" index="0" length="163.67" shape="803.58,650.48 889.77,771.23" speed="13.89" />
    </edge>
    <edge from="1608112710" id="-147609859#3" priority="4" to="671145416" type="highway.residential">
        <lane id="-147609859#3_0" index="0" length="126.98" shape="721.51,546.59 790.95,633.75" speed="13.89" />
    </edge>
    <edge from="1608112474" id="-147609859#4" priority="4" to="1608112710" type="highway.residential">
        <lane id="-147609859#4_0" index="0" length="235.21" shape="590.90,355.60 715.79,538.85" speed="13.89" />
    </edge>
    <edge from="7" id="-147609871#0" priority="4" shape="887.02,471.50 881.32,463.29 881.08,462.95 872.76,451.06 858.53,437.05" to="1636165127" type="highway.residential">
        <lane id="-147609871#0_0" index="0" length="44.90" shape="885.67,472.44 879.96,464.23 879.73,463.90 871.50,452.13 861.33,442.12" speed="13.89" />
    </edge>
    <edge from="8" id="-147609871#1" priority="4" shape="903.71,495.43 895.45,483.62 887.02,471.50" to="7" type="highway.residential">
        <lane id="-147609871#1_0" index="0" length="29.18" shape="902.36,496.38 894.10,484.57 885.67,472.44" speed="13.89" />
    </edge>
    <edge from="1608112761" id="-147609871#2" priority="4" shape="961.41,576.16 908.79,502.69 903.71,495.43" to="8" type="highway.residential">
        <lane id="-147609871#2_0" index="0" length="99.23" shape="957.17,573.08 907.44,503.65 902.36,496.38" speed="13.89" />
    </edge>
    <edge from="1608112813" id="-147609871#3" priority="4" to="1608112761" type="highway.residential">
        <lane id="-147609871#3_0" index="0" length="69.93" shape="1002.17,627.08 963.24,580.89" speed="13.89" />
    </edge>
    <edge from="1608112861" id="-147609871#4" priority="4" to="1608112813" type="highway.residential">
        <lane id="-147609871#4_0" index="0" length="37.86" shape="1026.66,655.88 1008.33,634.35" speed="13.89" />
    </edge>
    <edge from="1608112633" id="-147609881#0" priority="4" to="1608112476" type="highway.residential">
        <lane id="-147609881#0_0" index="0" length="178.14" shape="661.36,495.75 568.23,359.95" speed="13.89" />
    </edge>
    <edge from="1608112837" id="-147609881#1" priority="4" to="1608112633" type="highway.residential">
        <lane id="-147609881#1_0" index="0" length="168.38" shape="755.72,628.56 666.79,503.52" speed="13.89" />
    </edge>
    <edge from="1608112910" id="-147609881#2" priority="4" to="1608112837" type="highway.residential">
        <lane id="-147609881#2_0" index="0" length="61.91" shape="796.61,682.52 767.97,645.15" speed="13.89" />
    </edge>
    <edge from="1608112964" id="-147609881#3" priority="4" to="1608112910" type="highway.residential">
        <lane id="-147609881#3_0" index="0" length="97.90" shape="854.73,761.45 802.34,690.16" speed="13.89" />
    </edge>
    <edge from="1608113019" id="-147609881#4" priority="4" to="1608112964" type="highway.residential">
        <lane id="-147609881#4_0" index="0" length="124.49" shape="928.18,861.36 860.39,769.14" speed="13.89" />
    </edge>
    <edge from="1608112543" id="-147609887#0" priority="4" to="1608112511" type="highway.residential">
        <lane id="-147609887#0_0" index="0" length="72.65" shape="1118.88,438.28 1163.78,394.46" speed="13.89" />
    </edge>
    <edge from="1608112607" id="-147609887#1" priority="4" to="1608112543" type="highway.residential">
        <lane id="-147609887#1_0" index="0" length="75.83" shape="1063.43,489.45 1111.33,445.41" speed="13.89" />
    </edge>
    <edge from="671145419" id="-147609887#2" priority="4" to="1608112607" type="highway.residential">
        <lane id="-147609887#2_0" index="0" length="46.91" shape="1028.55,518.91 1056.46,495.58" speed="13.89" />
    </edge>
    <edge from="1608112761" id="-147609887#3" priority="4" to="671145419" type="highway.residential">
        <lane id="-147609887#3_0" index="0" length="82.14" shape="964.20,571.74 1019.78,526.17" speed="13.89" />
    </edge>
    <edge from="10" id="-147609887#4" priority="4" to="1608112761" type="highway.residential">
        <lane id="-147609887#4_0" index="0" length="28.73" shape="938.36,593.39 956.71,577.96" speed="13.89" />
    </edge>
    <edge from="9" id="-147609887#5" priority="4" to="10" type="highway.residential">
        <lane id="-147609887#5_0" index="0" length="25.81" shape="918.60,610.00 938.36,593.39" speed="13.89" />
    </edge>
    <edge from="4" id="-147609887#6" priority="4" to="9" type="highway.residential">
        <lane id="-147609887#6_0" index="0" length="5.96" shape="914.04,613.83 918.60,610.00" speed="13.89" />
    </edge>
    <edge from="1608112836" id="-147609887#7" priority="4" to="4" type="highway.residential">
        <lane id="-147609887#7_0" index="0" length="32.74" shape="892.81,631.69 914.04,613.83" speed="13.89" />
    </edge>
    <edge from="1608112863" id="-147609887#8" priority="4" shape="868.48,661.07 873.63,651.24 890.05,636.17" to="1608112836" type="highway.residential">
        <lane id="-147609887#8_0" index="0" length="33.38" shape="869.54,655.50 872.31,650.22 885.70,637.92" speed="13.89" />
    </edge>
    <edge from="1608112947" id="-147609893#0" priority="4" to="1608112969" type="highway.residential">
        <lane id="-147609893#0_0" index="0" length="71.03" shape="943.22,735.34 896.22,774.34" speed="13.89" />
    </edge>
    <edge from="671145420" id="-147609893#1" priority="4" to="1608112947" type="highway.residential">
        <lane id="-147609893#1_0" index="0" length="54.42" shape="982.35,701.19 950.72,728.95" speed="13.89" />
    </edge>
    <edge from="1608112861" id="-147609893#2" priority="4" to="671145420" type="highway.residential">
        <lane id="-147609893#2_0" index="0" length="57.30" shape="1028.39,662.79 993.35,691.81" speed="13.89" />
    </edge>
    <edge from="671145423" id="-147609893#3" priority="4" to="1608112861" type="highway.residential">
        <lane id="-147609893#3_0" index="0" length="81.48" shape="1090.57,611.05 1035.70,656.71" speed="13.89" />
    </edge>
    <edge from="1608112685" id="-147609893#4" priority="4" to="671145423" type="highway.residential">
        <lane id="-147609893#4_0" index="0" length="94.86" shape="1158.94,543.91 1098.27,604.08" speed="13.89" />
    </edge>
    <edge from="1608112661" id="-147609893#5" priority="4" to="1608112685" type="highway.residential">
        <lane id="-147609893#5_0" index="0" length="38.39" shape="1191.56,527.15 1165.28,539.37" speed="13.89" />
    </edge>
    <edge from="1608112613" id="-147609893#6" priority="4" shape="1250.14,498.13 1230.47,514.04 1195.82,523.35" to="1608112661" type="highway.residential">
        <lane id="-147609893#6_0" index="0" length="61.17" shape="1247.40,502.47 1231.23,515.54 1200.76,523.73" speed="13.89" />
    </edge>
    <edge from="1621845940" id="-149171297" priority="4" to="1621845936" type="highway.residential">
        <lane id="-149171297_0" index="0" length="68.59" shape="595.29,268.69 588.46,206.90" speed="13.89" />
    </edge>
    <edge from="6" id="-150702456#0" priority="4" to="1608112836" type="highway.residential">
        <lane id="-150702456#0_0" index="0" length="47.53" shape="863.56,596.67 888.46,631.15" speed="13.89" />
    </edge>
    <edge from="5" id="-150702456#1" priority="4" to="6" type="highway.residential">
        <lane id="-150702456#1_0" index="0" length="99.81" shape="805.13,515.75 863.56,596.67" speed="13.89" />
    </edge>
    <edge from="1608112621" id="-150702456#2" priority="4" to="5" type="highway.residential">
        <lane id="-150702456#2_0" index="0" length="27.03" shape="792.08,497.68 805.13,515.75" speed="13.89" />
    </edge>
    <edge from="1608112621" id="-150726944#0" priority="4" to="1608112710" type="highway.residential">
        <lane id="-150726944#0_0" index="0" length="86.09" shape="785.05,498.82 722.15,542.25" speed="13.89" />
    </edge>
    <edge from="1636165127" id="-150726944#1" priority="4" shape="858.53,437.05 852.39,446.89 846.28,452.45 787.96,494.80" to="1608112621" type="highway.residential">
        <lane id="-150726944#1_0" index="0" length="91.93" shape="856.99,442.64 853.67,447.96 847.39,453.67 792.77,493.35" speed="13.89" />
    </edge>
    <edge from="1608112446" id="-150726944#2" priority="4" shape="861.40,317.45 869.84,400.16 867.17,417.16 864.17,427.88 858.53,437.05" to="1636165127" type="highway.residential">
        <lane id="-150726944#2_0" index="0" length="122.24" shape="863.69,323.67 871.50,400.20 868.80,417.42 865.70,428.55 862.08,434.43" speed="13.89" />
    </edge>
    <edge from="1641501897" id="-151323241#0" priority="4" shape="999.27,527.09 999.52,520.79 995.18,513.93 988.22,511.34 980.33,513.73 975.66,521.14 976.91,529.25 982.56,534.50 991.13,535.10 991.61,534.81 996.70,542.54 1002.23,537.40 997.23,530.38" to="1641501900" type="highway.residential">
        <lane id="-151323241#0_0" index="0" length="89.35" shape="997.66,526.16 997.85,521.24 994.08,515.28 988.17,513.08 981.40,515.13 977.38,521.50 978.45,528.43 983.26,532.89 990.73,533.41 992.13,532.58 997.01,540.00 1000.04,537.17 997.14,533.09" speed="13.89" />
    </edge>
    <edge from="1641501900" id="-151323241#1" priority="4" to="1641501897" type="highway.residential">
        <lane id="-151323241#1_0" index="0" length="3.87" shape="996.97,527.67 997.42,526.95" speed="13.89" />
    </edge>
    <edge from="563684853" id="-197992747#0" priority="5" shape="1104.81,741.20 1136.34,754.50 1174.97,764.77 1218.33,807.83 1253.54,809.70 1294.93,850.18 1329.40,883.65 1345.11,950.41 1353.43,995.69" to="671145437" type="highway.unclassified">
        <lane id="-197992747#0_0" index="0" length="391.13" shape="1111.75,742.34 1136.98,752.98 1175.82,763.29 1219.05,806.21 1254.25,808.08 1296.08,849.00 1330.90,882.80 1346.72,950.03 1355.05,995.39" speed="22.22" />
    </edge>
    <edge from="2081863136" id="-197992747#1" priority="5" to="563684853" type="highway.unclassified">
        <lane id="-197992747#1_0" index="0" length="23.16" shape="1088.97,733.23 1098.50,736.96" speed="22.22" />
    </edge>
    <edge from="2081863142" id="-197992747#2" priority="5" to="2081863136" type="highway.unclassified">
        <lane id="-197992747#2_0" index="0" length="82.65" shape="1022.24,707.08 1081.12,730.15" speed="22.22" />
    </edge>
    <edge from="671145420" id="-197992747#3" priority="5" to="2081863142" type="highway.unclassified">
        <lane id="-197992747#3_0" index="0" length="32.33" shape="994.03,696.03 1013.38,703.61" speed="22.22" />
    </edge>
    <edge from="671145417" id="-197992747#4" priority="5" to="671145420" type="highway.unclassified">
        <lane id="-197992747#4_0" index="0" length="89.66" shape="906.61,670.80 980.12,691.40" speed="22.22" />
    </edge>
    <edge from="1608112863" id="-197992747#5" priority="5" to="671145417" type="highway.unclassified">
        <lane id="-197992747#5_0" index="0" length="33.54" shape="874.15,661.07 897.32,668.11" speed="22.22" />
    </edge>
    <edge from="671145416" id="-197992747#6" priority="5" to="1608112863" type="highway.unclassified">
        <lane id="-197992747#6_0" index="0" length="74.45" shape="806.65,643.94 864.94,658.49" speed="22.22" />
    </edge>
    <edge from="1608112837" id="-197992747#7" priority="5" to="671145416" type="highway.unclassified">
        <lane id="-197992747#7_0" index="0" length="33.97" shape="773.44,636.50 786.25,639.23" speed="22.22" />
    </edge>
    <edge from="3116369925" id="-197992747#8" priority="5" shape="642.33,607.85 655.95,611.28 749.15,632.54 763.02,635.97" to="1608112837" type="highway.unclassified">
        <lane id="-197992747#8_0" index="0" length="123.92" shape="651.40,608.43 656.36,609.68 749.52,630.93 753.45,631.90" speed="22.22" />
    </edge>
    <edge from="3116369915" id="-197992747#9" priority="5" to="3116369925" type="highway.unclassified">
        <lane id="-197992747#9_0" index="0" length="20.99" shape="631.97,602.86 633.22,603.25" speed="22.22" />
    </edge>
    <edge from="2081863143" id="-197994236" priority="4" to="2081863141" type="highway.residential">
        <lane id="-197994236_0" index="0" length="75.18" shape="981.18,781.67 928.12,819.89" speed="13.89" />
    </edge>
    <edge from="2081863137" id="-197994237" priority="4" to="1608112895" type="highway.residential">
        <lane id="-197994237_0" index="0" length="70.17" shape="1131.53,712.36 1095.68,663.89" speed="13.89" />
    </edge>
    <edge from="2081863142" id="-197994238" priority="4" shape="1017.00,706.80 1008.00,735.25 974.98,762.07" to="671145426" type="highway.residential">
        <lane id="-197994238_0" index="0" length="72.37" shape="1017.08,712.04 1009.42,736.22 979.55,760.49" speed="13.89" />
    </edge>
    <edge from="1608112451" id="-198683265#0" priority="4" to="1608112424" type="highway.residential">
        <lane id="-198683265#0_0" index="0" length="36.81" shape="1112.78,320.70 1101.91,298.76" speed="13.89" />
    </edge>
    <edge from="1608112462" id="-198683265#1" priority="4" to="1608112451" type="highway.residential">
        <lane id="-198683265#1_0" index="0" length="27.87" shape="1129.29,343.52 1117.63,328.49" speed="13.89" />
    </edge>
    <edge from="1608112473" id="-198683265#2" priority="4" to="1608112462" type="highway.residential">
        <lane id="-198683265#2_0" index="0" length="13.62" shape="1137.40,354.04 1135.09,351.03" speed="13.89" />
    </edge>
    <edge from="1608112511" id="-198683265#3" priority="4" to="1608112473" type="highway.residential">
        <lane id="-198683265#3_0" index="0" length="44.26" shape="1164.74,389.46 1143.20,361.57" speed="13.89" />
    </edge>
    <edge from="1608112513" id="-198683265#4" priority="4" to="1608112511" type="highway.residential">
        <lane id="-198683265#4_0" index="0" length="6.13" shape="1170.45,397.22 1170.33,397.06" speed="13.89" />
    </edge>
    <edge from="1608112613" id="-198683265#5" priority="4" shape="1250.14,498.13 1193.87,433.07 1172.27,396.94" to="1608112513" type="highway.residential">
        <lane id="-198683265#5_0" index="0" length="128.11" shape="1245.71,495.53 1192.63,434.15 1173.15,401.62" speed="13.89" />
    </edge>
    <edge from="563684896" id="-198683265#6" priority="4" shape="1309.99,565.88 1262.89,510.98 1250.14,498.13" to="1608112613" type="highway.residential">
        <lane id="-198683265#6_0" index="0" length="90.44" shape="1305.53,563.21 1261.64,512.06 1252.09,502.44" speed="13.89" />
    </edge>
    <edge from="1608112424" id="-198683266" priority="6" to="599495487" type="highway.tertiary">
        <lane id="-198683266_0" index="0" length="71.81" shape="1096.36,284.84 1079.75,229.62" speed="22.22" />
    </edge>
    <edge from="3029386207" id="-299004645" priority="4" to="3029386202" type="highway.residential">
        <lane id="-299004645_0" index="0" length="67.70" shape="709.67,255.12 703.15,194.20" speed="13.89" />
    </edge>
    <edge from="563684868" id="-44354139#0" priority="11" shape="770.78,973.21 731.01,1001.39 666.30,1045.57 631.88,1069.32 576.09,1108.20 498.60,1156.70 474.02,1172.37 439.63,1193.54 364.20,1239.66 347.78,1248.68 328.19,1247.04" to="563684988" type="highway.trunk">
        <lane id="-44354139#0_0" index="0" length="524.66" shape="769.78,975.95 731.96,1002.74 667.23,1046.93 632.82,1070.67 577.04,1109.55 499.48,1158.10 474.90,1173.76 440.50,1194.95 365.06,1241.07 348.14,1250.36 328.06,1248.68" speed="27.78" />
    </edge>
    <edge from="3116369870" id="-44354139#1" priority="11" shape="895.09,889.79 888.65,894.19 770.78,973.21" to="563684868" type="highway.trunk">
        <lane id="-44354139#1_0" index="0" length="149.71" shape="893.10,893.15 889.58,895.56 774.84,972.48" speed="27.78" />
    </edge>
    <edge from="563684896" id="-44354139#10" priority="11" to="1608112811" type="highway.trunk">
        <lane id="-44354139#10_0" index="0" length="98.62" shape="1307.54,570.23 1240.61,629.03" speed="27.78" />
    </edge>
    <edge from="563684798" id="-44354139#11" priority="11" shape="1593.40,236.23 1593.68,251.59 1583.91,267.96 1518.31,341.44 1494.79,370.50 1441.26,431.35 1384.32,494.47 1309.99,565.88" to="563684896" type="highway.trunk">
        <lane id="-44354139#11_0" index="0" length="439.44" shape="1595.17,242.96 1595.34,252.03 1585.25,268.94 1519.54,342.54 1496.07,371.54 1442.50,432.44 1385.55,495.58 1314.70,563.65" speed="27.78" />
    </edge>
    <edge from="563684823" id="-44354139#12" priority="11" shape="1583.48,165.76 1585.64,181.05 1591.18,220.48 1593.40,236.23" to="563684798" type="highway.trunk">
        <lane id="-44354139#12_0" index="0" length="75.14" shape="1586.01,171.86 1587.27,180.82 1592.81,220.25 1594.13,229.60" speed="27.78" />
    </edge>
    <edge from="1608113019" id="-44354139#2" priority="11" shape="932.39,864.30 926.57,868.29 895.09,889.79" to="3116369870" type="highway.trunk">
        <lane id="-44354139#2_0" index="0" length="45.17" shape="929.31,868.41 927.51,869.65 898.81,889.25" speed="27.78" />
    </edge>
    <edge from="1608113011" id="-44354139#3" priority="11" to="1608113019" type="highway.trunk">
        <lane id="-44354139#3_0" index="0" length="17.43" shape="943.81,858.87 937.12,863.21" speed="27.78" />
    </edge>
    <edge from="563684859" id="-44354139#4" priority="11" to="1608113011" type="highway.trunk">
        <lane id="-44354139#4_0" index="0" length="72.20" shape="1003.16,817.33 951.84,853.44" speed="27.78" />
    </edge>
    <edge from="563684853" id="-44354139#5" priority="11" to="563684859" type="highway.trunk">
        <lane id="-44354139#5_0" index="0" length="122.24" shape="1099.78,746.91 1011.11,811.63" speed="27.78" />
    </edge>
    <edge from="1" id="-44354139#6" priority="11" to="563684853" type="highway.trunk">
        <lane id="-44354139#6_0" index="0" length="27.50" shape="1127.00,724.88 1111.12,738.09" speed="27.78" />
    </edge>
    <edge from="2081863137" id="-44354139#7" priority="11" to="1" type="highway.trunk">
        <lane id="-44354139#7_0" index="0" length="12.85" shape="1133.37,719.59 1127.00,724.88" speed="27.78" />
    </edge>
    <edge from="563684903" id="-44354139#8" priority="11" to="2081863137" type="highway.trunk">
        <lane id="-44354139#8_0" index="0" length="44.41" shape="1166.98,690.89 1140.69,713.40" speed="27.78" />
    </edge>
    <edge from="1608112811" id="-44354139#9" priority="11" shape="1235.91,630.96 1224.41,640.58 1169.55,686.51" to="563684903" type="highway.trunk">
        <lane id="-44354139#9_0" index="0" length="86.54" shape="1233.31,635.29 1225.47,641.85 1174.19,684.78" speed="27.78" />
    </edge>
    <edge from="660732984" id="-51778909#0" priority="5" shape="654.48,800.55 626.41,812.17 564.49,841.39" to="660732962" type="highway.unclassified">
        <lane id="-51778909#0_0" index="0" length="98.84" shape="650.65,803.92 627.04,813.69 569.56,840.82" speed="22.22" />
    </edge>
    <edge from="660732981" id="-51778909#1" priority="5" to="660732984" type="highway.unclassified">
        <lane id="-51778909#1_0" index="0" length="42.43" shape="690.16,784.56 659.60,799.83" speed="22.22" />
    </edge>
    <edge from="660732979" id="-51778909#2" priority="5" to="660732981" type="highway.unclassified">
        <lane id="-51778909#2_0" index="0" length="68.08" shape="742.11,739.70 696.85,779.86" speed="22.22" />
    </edge>
    <edge from="660732939" id="-51778910#0" priority="5" shape="627.99,743.60 640.99,770.17 654.48,800.55" to="660732984" type="highway.unclassified">
        <lane id="-51778910#0_0" index="0" length="62.82" shape="631.52,747.06 642.47,769.45 654.00,795.40" speed="22.22" />
    </edge>
    <edge from="660732941" id="-51778910#1" priority="5" to="660732939" type="highway.unclassified">
        <lane id="-51778910#1_0" index="0" length="33.50" shape="619.69,715.16 628.05,738.83" speed="22.22" />
    </edge>
    <edge from="660732944" id="-51778910#2" priority="5" to="660732941" type="highway.unclassified">
        <lane id="-51778910#2_0" index="0" length="45.46" shape="608.98,672.87 617.14,706.34" speed="22.22" />
    </edge>
    <edge from="660732940" id="-51778910#3" priority="5" to="660732944" type="highway.unclassified">
        <lane id="-51778910#3_0" index="0" length="67.10" shape="594.95,607.16 606.57,662.30" speed="22.22" />
    </edge>
    <edge from="660732944" id="-51778911#0" priority="5" to="660732943" type="highway.unclassified">
        <lane id="-51778911#0_0" index="0" length="105.96" shape="600.80,669.74 506.03,673.89" speed="22.22" />
    </edge>
    <edge from="660732980" id="-51778911#1" priority="5" to="660732944" type="highway.unclassified">
        <lane id="-51778911#1_0" index="0" length="42.84" shape="644.63,668.77 611.64,669.40" speed="22.22" />
    </edge>